data_Co(bdp)-solvated-no-H_4-4-4
_audit_creation_date              2020-05-23
_audit_creation_method            'Materials Studio'
_symmetry_space_group_name_H-M    'P1'
_symmetry_Int_Tables_number       1
_symmetry_cell_setting            triclinic
loop_
_symmetry_equiv_pos_as_xyz
  x,y,z
_cell_length_a                    53.0832
_cell_length_b                    53.0832
_cell_length_c                    57.4008
_cell_angle_alpha                 90.0000
_cell_angle_beta                  90.0000
_cell_angle_gamma                 90.0000
loop_
_atom_site_label
_atom_site_type_symbol
_atom_site_fract_x
_atom_site_fract_y
_atom_site_fract_z
_atom_site_U_iso_or_equiv
_atom_site_adp_type
_atom_site_occupancy
N1     N     0.21686   0.24600   0.07373   0.03357  Uani   1.00
N2     N     0.02778   0.00163   0.05085   0.03837  Uani   1.00
C3     C     0.19301   0.24380   0.08035   0.04437  Uani   1.00
C4     C     0.05177   0.00253   0.04393   0.05277  Uani   1.00
C5     C     0.10943   0.00565   0.04278   0.06813  Uani   1.00
C6     C     0.13528   0.00528   0.04270   0.07560  Uani   1.00
N7     N     0.03314   0.00400   0.19873   0.03357  Uani   1.00
N8     N     0.22221   0.24837   0.17585   0.03837  Uani   1.00
C9     C     0.05699   0.00620   0.20535   0.04437  Uani   1.00
C10    C     0.19823   0.24747   0.16893   0.05277  Uani   1.00
C11    C     0.14057   0.24435   0.16778   0.06813  Uani   1.00
C12    C     0.11472   0.24472   0.16770   0.07560  Uani   1.00
N13    N     0.00400   0.21686   0.13623   0.03357  Uani   1.00
N14    N     0.24837   0.02779   0.11335   0.03837  Uani   1.00
C15    C     0.00620   0.19301   0.14285   0.04437  Uani   1.00
C16    C     0.24748   0.05178   0.10643   0.05277  Uani   1.00
C17    C     0.24435   0.10943   0.10528   0.06813  Uani   1.00
C18    C     0.24473   0.13528   0.10520   0.07560  Uani   1.00
N19    N     0.24600   0.03314   0.01123   0.03357  Uani   1.00
N20    N     0.00163   0.22221   0.23835   0.03837  Uani   1.00
C21    C     0.24380   0.05699   0.01785   0.04437  Uani   1.00
C22    C     0.00253   0.19823   0.23143   0.05277  Uani   1.00
C23    C     0.00565   0.14058   0.23028   0.06813  Uani   1.00
C24    C     0.00528   0.11472   0.23020   0.07560  Uani   1.00
N25    N     0.03314   0.24600   0.17627   0.03357  Uani   1.00
N26    N     0.22221   0.00163   0.19915   0.03837  Uani   1.00
C27    C     0.05699   0.24380   0.16965   0.04437  Uani   1.00
C28    C     0.19823   0.00253   0.20608   0.05277  Uani   1.00
C29    C     0.14057   0.00565   0.20723   0.06813  Uani   1.00
C30    C     0.11472   0.00528   0.20730   0.07560  Uani   1.00
N31    N     0.21686   0.00400   0.05127   0.03357  Uani   1.00
N32    N     0.02778   0.24837   0.07415   0.03837  Uani   1.00
C33    C     0.19301   0.00620   0.04465   0.04437  Uani   1.00
C34    C     0.05177   0.24747   0.08108   0.05277  Uani   1.00
C35    C     0.10943   0.24435   0.08223   0.06813  Uani   1.00
C36    C     0.13528   0.24472   0.08230   0.07560  Uani   1.00
N37    N     0.24600   0.21686   0.11377   0.03357  Uani   1.00
N38    N     0.00163   0.02779   0.13665   0.03837  Uani   1.00
C39    C     0.24380   0.19301   0.10715   0.04437  Uani   1.00
C40    C     0.00253   0.05178   0.14358   0.05277  Uani   1.00
C41    C     0.00565   0.10943   0.14473   0.06813  Uani   1.00
C42    C     0.00528   0.13528   0.14480   0.07560  Uani   1.00
N43    N     0.00400   0.03314   0.23877   0.03357  Uani   1.00
N44    N     0.24837   0.22221   0.01165   0.03837  Uani   1.00
C45    C     0.00620   0.05699   0.23215   0.04437  Uani   1.00
C46    C     0.24748   0.19823   0.01857   0.05277  Uani   1.00
C47    C     0.24435   0.14058   0.01973   0.06813  Uani   1.00
C48    C     0.24473   0.11472   0.01980   0.07560  Uani   1.00
Co49   Co    0.24721   0.24721   0.09375   0.02543  Uani   1.00
Co50   Co    0.00279   0.00279   0.21875   0.02543  Uani   1.00
Co51   Co    0.00279   0.24721   0.15625   0.02543  Uani   1.00
Co52   Co    0.24721   0.00279   0.03125   0.02543  Uani   1.00
C53    C     0.06790   0.00000   0.06250   0.04747  Uani   1.00
C54    C     0.17678   0.00000   0.06250   0.04137  Uani   1.00
C55    C     0.14888   0.00000   0.06250   0.05083  Uani   1.00
C56    C     0.09598   0.00000   0.06250   0.05433  Uani   1.00
C57    C     0.18210   0.00000   0.18750   0.04747  Uani   1.00
C58    C     0.07322   0.00000   0.18750   0.04137  Uani   1.00
C59    C     0.10112   0.00000   0.18750   0.05083  Uani   1.00
C60    C     0.15402   0.00000   0.18750   0.05433  Uani   1.00
C61    C     0.00000   0.06790   0.12500   0.04747  Uani   1.00
C62    C     0.00000   0.17678   0.12500   0.04137  Uani   1.00
C63    C     0.00000   0.14888   0.12500   0.05083  Uani   1.00
C64    C     0.00000   0.09598   0.12500   0.05433  Uani   1.00
C65    C     0.00000   0.18210   0.00000   0.04747  Uani   1.00
C66    C     0.00000   0.07322   0.00000   0.04137  Uani   1.00
C67    C     0.00000   0.10112   0.00000   0.05083  Uani   1.00
C68    C     0.00000   0.15402   0.00000   0.05433  Uani   1.00
N69    N     0.46686   0.24600   0.07373   0.03357  Uani   1.00
N70    N     0.27778   0.00163   0.05085   0.03837  Uani   1.00
C71    C     0.44301   0.24380   0.08035   0.04437  Uani   1.00
C72    C     0.30177   0.00253   0.04393   0.05277  Uani   1.00
C73    C     0.35943   0.00565   0.04278   0.06813  Uani   1.00
C74    C     0.38528   0.00528   0.04270   0.07560  Uani   1.00
N75    N     0.28314   0.00400   0.19873   0.03357  Uani   1.00
N76    N     0.47222   0.24837   0.17585   0.03837  Uani   1.00
C77    C     0.30699   0.00620   0.20535   0.04437  Uani   1.00
C78    C     0.44822   0.24747   0.16893   0.05277  Uani   1.00
C79    C     0.39057   0.24435   0.16778   0.06813  Uani   1.00
C80    C     0.36472   0.24472   0.16770   0.07560  Uani   1.00
N81    N     0.25400   0.21686   0.13623   0.03357  Uani   1.00
N82    N     0.49838   0.02779   0.11335   0.03837  Uani   1.00
C83    C     0.25620   0.19301   0.14285   0.04437  Uani   1.00
C84    C     0.49748   0.05178   0.10643   0.05277  Uani   1.00
C85    C     0.49435   0.10943   0.10528   0.06813  Uani   1.00
C86    C     0.49473   0.13528   0.10520   0.07560  Uani   1.00
N87    N     0.49600   0.03314   0.01123   0.03357  Uani   1.00
N88    N     0.25163   0.22221   0.23835   0.03837  Uani   1.00
C89    C     0.49380   0.05699   0.01785   0.04437  Uani   1.00
C90    C     0.25253   0.19823   0.23143   0.05277  Uani   1.00
C91    C     0.25565   0.14058   0.23028   0.06813  Uani   1.00
C92    C     0.25528   0.11472   0.23020   0.07560  Uani   1.00
N93    N     0.28314   0.24600   0.17627   0.03357  Uani   1.00
N94    N     0.47222   0.00163   0.19915   0.03837  Uani   1.00
C95    C     0.30699   0.24380   0.16965   0.04437  Uani   1.00
C96    C     0.44822   0.00253   0.20608   0.05277  Uani   1.00
C97    C     0.39057   0.00565   0.20723   0.06813  Uani   1.00
C98    C     0.36472   0.00528   0.20730   0.07560  Uani   1.00
N99    N     0.46686   0.00400   0.05127   0.03357  Uani   1.00
N100   N     0.27778   0.24837   0.07415   0.03837  Uani   1.00
C101   C     0.44301   0.00620   0.04465   0.04437  Uani   1.00
C102   C     0.30177   0.24747   0.08108   0.05277  Uani   1.00
C103   C     0.35943   0.24435   0.08223   0.06813  Uani   1.00
C104   C     0.38528   0.24472   0.08230   0.07560  Uani   1.00
N105   N     0.49600   0.21686   0.11377   0.03357  Uani   1.00
N106   N     0.25163   0.02779   0.13665   0.03837  Uani   1.00
C107   C     0.49380   0.19301   0.10715   0.04437  Uani   1.00
C108   C     0.25253   0.05178   0.14358   0.05277  Uani   1.00
C109   C     0.25565   0.10943   0.14473   0.06813  Uani   1.00
C110   C     0.25528   0.13528   0.14480   0.07560  Uani   1.00
N111   N     0.25400   0.03314   0.23877   0.03357  Uani   1.00
N112   N     0.49838   0.22221   0.01165   0.03837  Uani   1.00
C113   C     0.25620   0.05699   0.23215   0.04437  Uani   1.00
C114   C     0.49748   0.19823   0.01857   0.05277  Uani   1.00
C115   C     0.49435   0.14058   0.01973   0.06813  Uani   1.00
C116   C     0.49473   0.11472   0.01980   0.07560  Uani   1.00
Co117  Co    0.49721   0.24721   0.09375   0.02543  Uani   1.00
Co118  Co    0.25279   0.00279   0.21875   0.02543  Uani   1.00
Co119  Co    0.25279   0.24721   0.15625   0.02543  Uani   1.00
Co120  Co    0.49721   0.00279   0.03125   0.02543  Uani   1.00
C121   C     0.31790   0.00000   0.06250   0.04747  Uani   1.00
C122   C     0.42678   0.00000   0.06250   0.04137  Uani   1.00
C123   C     0.39888   0.00000   0.06250   0.05083  Uani   1.00
C124   C     0.34598   0.00000   0.06250   0.05433  Uani   1.00
C125   C     0.43210   0.00000   0.18750   0.04747  Uani   1.00
C126   C     0.32322   0.00000   0.18750   0.04137  Uani   1.00
C127   C     0.35112   0.00000   0.18750   0.05083  Uani   1.00
C128   C     0.40403   0.00000   0.18750   0.05433  Uani   1.00
C129   C     0.25000   0.06790   0.12500   0.04747  Uani   1.00
C130   C     0.25000   0.17678   0.12500   0.04137  Uani   1.00
C131   C     0.25000   0.14888   0.12500   0.05083  Uani   1.00
C132   C     0.25000   0.09598   0.12500   0.05433  Uani   1.00
C133   C     0.25000   0.18210   0.00000   0.04747  Uani   1.00
C134   C     0.25000   0.07322   0.00000   0.04137  Uani   1.00
C135   C     0.25000   0.10112   0.00000   0.05083  Uani   1.00
C136   C     0.25000   0.15402   0.00000   0.05433  Uani   1.00
N137   N     0.71686   0.24600   0.07373   0.03357  Uani   1.00
N138   N     0.52779   0.00163   0.05085   0.03837  Uani   1.00
C139   C     0.69301   0.24380   0.08035   0.04437  Uani   1.00
C140   C     0.55178   0.00253   0.04393   0.05277  Uani   1.00
C141   C     0.60943   0.00565   0.04278   0.06813  Uani   1.00
C142   C     0.63528   0.00528   0.04270   0.07560  Uani   1.00
N143   N     0.53314   0.00400   0.19873   0.03357  Uani   1.00
N144   N     0.72222   0.24837   0.17585   0.03837  Uani   1.00
C145   C     0.55699   0.00620   0.20535   0.04437  Uani   1.00
C146   C     0.69823   0.24747   0.16893   0.05277  Uani   1.00
C147   C     0.64058   0.24435   0.16778   0.06813  Uani   1.00
C148   C     0.61473   0.24472   0.16770   0.07560  Uani   1.00
N149   N     0.50400   0.21686   0.13623   0.03357  Uani   1.00
N150   N     0.74837   0.02779   0.11335   0.03837  Uani   1.00
C151   C     0.50620   0.19301   0.14285   0.04437  Uani   1.00
C152   C     0.74748   0.05178   0.10643   0.05277  Uani   1.00
C153   C     0.74435   0.10943   0.10528   0.06813  Uani   1.00
C154   C     0.74473   0.13528   0.10520   0.07560  Uani   1.00
N155   N     0.74600   0.03314   0.01123   0.03357  Uani   1.00
N156   N     0.50163   0.22221   0.23835   0.03837  Uani   1.00
C157   C     0.74380   0.05699   0.01785   0.04437  Uani   1.00
C158   C     0.50253   0.19823   0.23143   0.05277  Uani   1.00
C159   C     0.50565   0.14058   0.23028   0.06813  Uani   1.00
C160   C     0.50528   0.11472   0.23020   0.07560  Uani   1.00
N161   N     0.53314   0.24600   0.17627   0.03357  Uani   1.00
N162   N     0.72222   0.00163   0.19915   0.03837  Uani   1.00
C163   C     0.55699   0.24380   0.16965   0.04437  Uani   1.00
C164   C     0.69823   0.00253   0.20608   0.05277  Uani   1.00
C165   C     0.64058   0.00565   0.20723   0.06813  Uani   1.00
C166   C     0.61473   0.00528   0.20730   0.07560  Uani   1.00
N167   N     0.71686   0.00400   0.05127   0.03357  Uani   1.00
N168   N     0.52779   0.24837   0.07415   0.03837  Uani   1.00
C169   C     0.69301   0.00620   0.04465   0.04437  Uani   1.00
C170   C     0.55178   0.24747   0.08108   0.05277  Uani   1.00
C171   C     0.60943   0.24435   0.08223   0.06813  Uani   1.00
C172   C     0.63528   0.24472   0.08230   0.07560  Uani   1.00
N173   N     0.74600   0.21686   0.11377   0.03357  Uani   1.00
N174   N     0.50163   0.02779   0.13665   0.03837  Uani   1.00
C175   C     0.74380   0.19301   0.10715   0.04437  Uani   1.00
C176   C     0.50253   0.05178   0.14358   0.05277  Uani   1.00
C177   C     0.50565   0.10943   0.14473   0.06813  Uani   1.00
C178   C     0.50528   0.13528   0.14480   0.07560  Uani   1.00
N179   N     0.50400   0.03314   0.23877   0.03357  Uani   1.00
N180   N     0.74837   0.22221   0.01165   0.03837  Uani   1.00
C181   C     0.50620   0.05699   0.23215   0.04437  Uani   1.00
C182   C     0.74748   0.19823   0.01857   0.05277  Uani   1.00
C183   C     0.74435   0.14058   0.01973   0.06813  Uani   1.00
C184   C     0.74473   0.11472   0.01980   0.07560  Uani   1.00
Co185  Co    0.74721   0.24721   0.09375   0.02543  Uani   1.00
Co186  Co    0.50279   0.00279   0.21875   0.02543  Uani   1.00
Co187  Co    0.50279   0.24721   0.15625   0.02543  Uani   1.00
Co188  Co    0.74721   0.00279   0.03125   0.02543  Uani   1.00
C189   C     0.56790   0.00000   0.06250   0.04747  Uani   1.00
C190   C     0.67678   0.00000   0.06250   0.04137  Uani   1.00
C191   C     0.64888   0.00000   0.06250   0.05083  Uani   1.00
C192   C     0.59598   0.00000   0.06250   0.05433  Uani   1.00
C193   C     0.68210   0.00000   0.18750   0.04747  Uani   1.00
C194   C     0.57322   0.00000   0.18750   0.04137  Uani   1.00
C195   C     0.60112   0.00000   0.18750   0.05083  Uani   1.00
C196   C     0.65402   0.00000   0.18750   0.05433  Uani   1.00
C197   C     0.50000   0.06790   0.12500   0.04747  Uani   1.00
C198   C     0.50000   0.17678   0.12500   0.04137  Uani   1.00
C199   C     0.50000   0.14888   0.12500   0.05083  Uani   1.00
C200   C     0.50000   0.09598   0.12500   0.05433  Uani   1.00
C201   C     0.50000   0.18210   0.00000   0.04747  Uani   1.00
C202   C     0.50000   0.07322   0.00000   0.04137  Uani   1.00
C203   C     0.50000   0.10112   0.00000   0.05083  Uani   1.00
C204   C     0.50000   0.15402   0.00000   0.05433  Uani   1.00
N205   N     0.96686   0.24600   0.07373   0.03357  Uani   1.00
N206   N     0.77779   0.00163   0.05085   0.03837  Uani   1.00
C207   C     0.94301   0.24380   0.08035   0.04437  Uani   1.00
C208   C     0.80178   0.00253   0.04393   0.05277  Uani   1.00
C209   C     0.85943   0.00565   0.04278   0.06813  Uani   1.00
C210   C     0.88528   0.00528   0.04270   0.07560  Uani   1.00
N211   N     0.78314   0.00400   0.19873   0.03357  Uani   1.00
N212   N     0.97222   0.24837   0.17585   0.03837  Uani   1.00
C213   C     0.80699   0.00620   0.20535   0.04437  Uani   1.00
C214   C     0.94823   0.24747   0.16893   0.05277  Uani   1.00
C215   C     0.89058   0.24435   0.16778   0.06813  Uani   1.00
C216   C     0.86472   0.24472   0.16770   0.07560  Uani   1.00
N217   N     0.75400   0.21686   0.13623   0.03357  Uani   1.00
N218   N     0.99838   0.02779   0.11335   0.03837  Uani   1.00
C219   C     0.75620   0.19301   0.14285   0.04437  Uani   1.00
C220   C     0.99748   0.05178   0.10643   0.05277  Uani   1.00
C221   C     0.99435   0.10943   0.10528   0.06813  Uani   1.00
C222   C     0.99473   0.13528   0.10520   0.07560  Uani   1.00
N223   N     0.99600   0.03314   0.01123   0.03357  Uani   1.00
N224   N     0.75163   0.22221   0.23835   0.03837  Uani   1.00
C225   C     0.99380   0.05699   0.01785   0.04437  Uani   1.00
C226   C     0.75253   0.19823   0.23143   0.05277  Uani   1.00
C227   C     0.75565   0.14058   0.23028   0.06813  Uani   1.00
C228   C     0.75528   0.11472   0.23020   0.07560  Uani   1.00
N229   N     0.78314   0.24600   0.17627   0.03357  Uani   1.00
N230   N     0.97222   0.00163   0.19915   0.03837  Uani   1.00
C231   C     0.80699   0.24380   0.16965   0.04437  Uani   1.00
C232   C     0.94823   0.00253   0.20608   0.05277  Uani   1.00
C233   C     0.89058   0.00565   0.20723   0.06813  Uani   1.00
C234   C     0.86472   0.00528   0.20730   0.07560  Uani   1.00
N235   N     0.96686   0.00400   0.05127   0.03357  Uani   1.00
N236   N     0.77779   0.24837   0.07415   0.03837  Uani   1.00
C237   C     0.94301   0.00620   0.04465   0.04437  Uani   1.00
C238   C     0.80178   0.24747   0.08108   0.05277  Uani   1.00
C239   C     0.85943   0.24435   0.08223   0.06813  Uani   1.00
C240   C     0.88528   0.24472   0.08230   0.07560  Uani   1.00
N241   N     0.99600   0.21686   0.11377   0.03357  Uani   1.00
N242   N     0.75163   0.02779   0.13665   0.03837  Uani   1.00
C243   C     0.99380   0.19301   0.10715   0.04437  Uani   1.00
C244   C     0.75253   0.05178   0.14358   0.05277  Uani   1.00
C245   C     0.75565   0.10943   0.14473   0.06813  Uani   1.00
C246   C     0.75528   0.13528   0.14480   0.07560  Uani   1.00
N247   N     0.75400   0.03314   0.23877   0.03357  Uani   1.00
N248   N     0.99838   0.22221   0.01165   0.03837  Uani   1.00
C249   C     0.75620   0.05699   0.23215   0.04437  Uani   1.00
C250   C     0.99748   0.19823   0.01857   0.05277  Uani   1.00
C251   C     0.99435   0.14058   0.01973   0.06813  Uani   1.00
C252   C     0.99473   0.11472   0.01980   0.07560  Uani   1.00
Co253  Co    0.99721   0.24721   0.09375   0.02543  Uani   1.00
Co254  Co    0.75279   0.00279   0.21875   0.02543  Uani   1.00
Co255  Co    0.75279   0.24721   0.15625   0.02543  Uani   1.00
Co256  Co    0.99721   0.00279   0.03125   0.02543  Uani   1.00
C257   C     0.81790   0.00000   0.06250   0.04747  Uani   1.00
C258   C     0.92678   0.00000   0.06250   0.04137  Uani   1.00
C259   C     0.89888   0.00000   0.06250   0.05083  Uani   1.00
C260   C     0.84598   0.00000   0.06250   0.05433  Uani   1.00
C261   C     0.93210   0.00000   0.18750   0.04747  Uani   1.00
C262   C     0.82322   0.00000   0.18750   0.04137  Uani   1.00
C263   C     0.85113   0.00000   0.18750   0.05083  Uani   1.00
C264   C     0.90403   0.00000   0.18750   0.05433  Uani   1.00
C265   C     0.75000   0.06790   0.12500   0.04747  Uani   1.00
C266   C     0.75000   0.17678   0.12500   0.04137  Uani   1.00
C267   C     0.75000   0.14888   0.12500   0.05083  Uani   1.00
C268   C     0.75000   0.09598   0.12500   0.05433  Uani   1.00
C269   C     0.75000   0.18210   0.00000   0.04747  Uani   1.00
C270   C     0.75000   0.07322   0.00000   0.04137  Uani   1.00
C271   C     0.75000   0.10112   0.00000   0.05083  Uani   1.00
C272   C     0.75000   0.15402   0.00000   0.05433  Uani   1.00
N273   N     0.21686   0.49600   0.07373   0.03357  Uani   1.00
N274   N     0.02778   0.25163   0.05085   0.03837  Uani   1.00
C275   C     0.19301   0.49380   0.08035   0.04437  Uani   1.00
C276   C     0.05177   0.25253   0.04393   0.05277  Uani   1.00
C277   C     0.10943   0.25565   0.04278   0.06813  Uani   1.00
C278   C     0.13528   0.25528   0.04270   0.07560  Uani   1.00
N279   N     0.03314   0.25400   0.19873   0.03357  Uani   1.00
N280   N     0.22221   0.49837   0.17585   0.03837  Uani   1.00
C281   C     0.05699   0.25620   0.20535   0.04437  Uani   1.00
C282   C     0.19823   0.49747   0.16893   0.05277  Uani   1.00
C283   C     0.14057   0.49435   0.16778   0.06813  Uani   1.00
C284   C     0.11472   0.49472   0.16770   0.07560  Uani   1.00
N285   N     0.00400   0.46686   0.13623   0.03357  Uani   1.00
N286   N     0.24837   0.27779   0.11335   0.03837  Uani   1.00
C287   C     0.00620   0.44301   0.14285   0.04437  Uani   1.00
C288   C     0.24748   0.30178   0.10643   0.05277  Uani   1.00
C289   C     0.24435   0.35943   0.10528   0.06813  Uani   1.00
C290   C     0.24473   0.38528   0.10520   0.07560  Uani   1.00
N291   N     0.24600   0.28314   0.01123   0.03357  Uani   1.00
N292   N     0.00163   0.47221   0.23835   0.03837  Uani   1.00
C293   C     0.24380   0.30699   0.01785   0.04437  Uani   1.00
C294   C     0.00253   0.44823   0.23143   0.05277  Uani   1.00
C295   C     0.00565   0.39058   0.23028   0.06813  Uani   1.00
C296   C     0.00528   0.36472   0.23020   0.07560  Uani   1.00
N297   N     0.03314   0.49600   0.17627   0.03357  Uani   1.00
N298   N     0.22221   0.25163   0.19915   0.03837  Uani   1.00
C299   C     0.05699   0.49380   0.16965   0.04437  Uani   1.00
C300   C     0.19823   0.25253   0.20608   0.05277  Uani   1.00
C301   C     0.14057   0.25565   0.20723   0.06813  Uani   1.00
C302   C     0.11472   0.25528   0.20730   0.07560  Uani   1.00
N303   N     0.21686   0.25400   0.05127   0.03357  Uani   1.00
N304   N     0.02778   0.49837   0.07415   0.03837  Uani   1.00
C305   C     0.19301   0.25620   0.04465   0.04437  Uani   1.00
C306   C     0.05177   0.49747   0.08108   0.05277  Uani   1.00
C307   C     0.10943   0.49435   0.08223   0.06813  Uani   1.00
C308   C     0.13528   0.49472   0.08230   0.07560  Uani   1.00
N309   N     0.24600   0.46686   0.11377   0.03357  Uani   1.00
N310   N     0.00163   0.27779   0.13665   0.03837  Uani   1.00
C311   C     0.24380   0.44301   0.10715   0.04437  Uani   1.00
C312   C     0.00253   0.30178   0.14358   0.05277  Uani   1.00
C313   C     0.00565   0.35943   0.14473   0.06813  Uani   1.00
C314   C     0.00528   0.38528   0.14480   0.07560  Uani   1.00
N315   N     0.00400   0.28314   0.23877   0.03357  Uani   1.00
N316   N     0.24837   0.47221   0.01165   0.03837  Uani   1.00
C317   C     0.00620   0.30699   0.23215   0.04437  Uani   1.00
C318   C     0.24748   0.44823   0.01857   0.05277  Uani   1.00
C319   C     0.24435   0.39058   0.01973   0.06813  Uani   1.00
C320   C     0.24473   0.36472   0.01980   0.07560  Uani   1.00
Co321  Co    0.24721   0.49721   0.09375   0.02543  Uani   1.00
Co322  Co    0.00279   0.25279   0.21875   0.02543  Uani   1.00
Co323  Co    0.00279   0.49721   0.15625   0.02543  Uani   1.00
Co324  Co    0.24721   0.25279   0.03125   0.02543  Uani   1.00
C325   C     0.06790   0.25000   0.06250   0.04747  Uani   1.00
C326   C     0.17678   0.25000   0.06250   0.04137  Uani   1.00
C327   C     0.14888   0.25000   0.06250   0.05083  Uani   1.00
C328   C     0.09598   0.25000   0.06250   0.05433  Uani   1.00
C329   C     0.18210   0.25000   0.18750   0.04747  Uani   1.00
C330   C     0.07322   0.25000   0.18750   0.04137  Uani   1.00
C331   C     0.10112   0.25000   0.18750   0.05083  Uani   1.00
C332   C     0.15402   0.25000   0.18750   0.05433  Uani   1.00
C333   C     0.00000   0.31790   0.12500   0.04747  Uani   1.00
C334   C     0.00000   0.42678   0.12500   0.04137  Uani   1.00
C335   C     0.00000   0.39888   0.12500   0.05083  Uani   1.00
C336   C     0.00000   0.34598   0.12500   0.05433  Uani   1.00
C337   C     0.00000   0.43210   0.00000   0.04747  Uani   1.00
C338   C     0.00000   0.32322   0.00000   0.04137  Uani   1.00
C339   C     0.00000   0.35112   0.00000   0.05083  Uani   1.00
C340   C     0.00000   0.40402   0.00000   0.05433  Uani   1.00
N341   N     0.46686   0.49600   0.07373   0.03357  Uani   1.00
N342   N     0.27778   0.25163   0.05085   0.03837  Uani   1.00
C343   C     0.44301   0.49380   0.08035   0.04437  Uani   1.00
C344   C     0.30177   0.25253   0.04393   0.05277  Uani   1.00
C345   C     0.35943   0.25565   0.04278   0.06813  Uani   1.00
C346   C     0.38528   0.25528   0.04270   0.07560  Uani   1.00
N347   N     0.28314   0.25400   0.19873   0.03357  Uani   1.00
N348   N     0.47222   0.49837   0.17585   0.03837  Uani   1.00
C349   C     0.30699   0.25620   0.20535   0.04437  Uani   1.00
C350   C     0.44822   0.49747   0.16893   0.05277  Uani   1.00
C351   C     0.39057   0.49435   0.16778   0.06813  Uani   1.00
C352   C     0.36472   0.49472   0.16770   0.07560  Uani   1.00
N353   N     0.25400   0.46686   0.13623   0.03357  Uani   1.00
N354   N     0.49838   0.27779   0.11335   0.03837  Uani   1.00
C355   C     0.25620   0.44301   0.14285   0.04437  Uani   1.00
C356   C     0.49748   0.30178   0.10643   0.05277  Uani   1.00
C357   C     0.49435   0.35943   0.10528   0.06813  Uani   1.00
C358   C     0.49473   0.38528   0.10520   0.07560  Uani   1.00
N359   N     0.49600   0.28314   0.01123   0.03357  Uani   1.00
N360   N     0.25163   0.47221   0.23835   0.03837  Uani   1.00
C361   C     0.49380   0.30699   0.01785   0.04437  Uani   1.00
C362   C     0.25253   0.44823   0.23143   0.05277  Uani   1.00
C363   C     0.25565   0.39058   0.23028   0.06813  Uani   1.00
C364   C     0.25528   0.36472   0.23020   0.07560  Uani   1.00
N365   N     0.28314   0.49600   0.17627   0.03357  Uani   1.00
N366   N     0.47222   0.25163   0.19915   0.03837  Uani   1.00
C367   C     0.30699   0.49380   0.16965   0.04437  Uani   1.00
C368   C     0.44822   0.25253   0.20608   0.05277  Uani   1.00
C369   C     0.39057   0.25565   0.20723   0.06813  Uani   1.00
C370   C     0.36472   0.25528   0.20730   0.07560  Uani   1.00
N371   N     0.46686   0.25400   0.05127   0.03357  Uani   1.00
N372   N     0.27778   0.49837   0.07415   0.03837  Uani   1.00
C373   C     0.44301   0.25620   0.04465   0.04437  Uani   1.00
C374   C     0.30177   0.49747   0.08108   0.05277  Uani   1.00
C375   C     0.35943   0.49435   0.08223   0.06813  Uani   1.00
C376   C     0.38528   0.49472   0.08230   0.07560  Uani   1.00
N377   N     0.49600   0.46686   0.11377   0.03357  Uani   1.00
N378   N     0.25163   0.27779   0.13665   0.03837  Uani   1.00
C379   C     0.49380   0.44301   0.10715   0.04437  Uani   1.00
C380   C     0.25253   0.30178   0.14358   0.05277  Uani   1.00
C381   C     0.25565   0.35943   0.14473   0.06813  Uani   1.00
C382   C     0.25528   0.38528   0.14480   0.07560  Uani   1.00
N383   N     0.25400   0.28314   0.23877   0.03357  Uani   1.00
N384   N     0.49838   0.47221   0.01165   0.03837  Uani   1.00
C385   C     0.25620   0.30699   0.23215   0.04437  Uani   1.00
C386   C     0.49748   0.44823   0.01857   0.05277  Uani   1.00
C387   C     0.49435   0.39058   0.01973   0.06813  Uani   1.00
C388   C     0.49473   0.36472   0.01980   0.07560  Uani   1.00
Co389  Co    0.49721   0.49721   0.09375   0.02543  Uani   1.00
Co390  Co    0.25279   0.25279   0.21875   0.02543  Uani   1.00
Co391  Co    0.25279   0.49721   0.15625   0.02543  Uani   1.00
Co392  Co    0.49721   0.25279   0.03125   0.02543  Uani   1.00
C393   C     0.31790   0.25000   0.06250   0.04747  Uani   1.00
C394   C     0.42678   0.25000   0.06250   0.04137  Uani   1.00
C395   C     0.39888   0.25000   0.06250   0.05083  Uani   1.00
C396   C     0.34598   0.25000   0.06250   0.05433  Uani   1.00
C397   C     0.43210   0.25000   0.18750   0.04747  Uani   1.00
C398   C     0.32322   0.25000   0.18750   0.04137  Uani   1.00
C399   C     0.35112   0.25000   0.18750   0.05083  Uani   1.00
C400   C     0.40403   0.25000   0.18750   0.05433  Uani   1.00
C401   C     0.25000   0.31790   0.12500   0.04747  Uani   1.00
C402   C     0.25000   0.42678   0.12500   0.04137  Uani   1.00
C403   C     0.25000   0.39888   0.12500   0.05083  Uani   1.00
C404   C     0.25000   0.34598   0.12500   0.05433  Uani   1.00
C405   C     0.25000   0.43210   0.00000   0.04747  Uani   1.00
C406   C     0.25000   0.32322   0.00000   0.04137  Uani   1.00
C407   C     0.25000   0.35112   0.00000   0.05083  Uani   1.00
C408   C     0.25000   0.40402   0.00000   0.05433  Uani   1.00
N409   N     0.71686   0.49600   0.07373   0.03357  Uani   1.00
N410   N     0.52779   0.25163   0.05085   0.03837  Uani   1.00
C411   C     0.69301   0.49380   0.08035   0.04437  Uani   1.00
C412   C     0.55178   0.25253   0.04393   0.05277  Uani   1.00
C413   C     0.60943   0.25565   0.04278   0.06813  Uani   1.00
C414   C     0.63528   0.25528   0.04270   0.07560  Uani   1.00
N415   N     0.53314   0.25400   0.19873   0.03357  Uani   1.00
N416   N     0.72222   0.49837   0.17585   0.03837  Uani   1.00
C417   C     0.55699   0.25620   0.20535   0.04437  Uani   1.00
C418   C     0.69823   0.49747   0.16893   0.05277  Uani   1.00
C419   C     0.64058   0.49435   0.16778   0.06813  Uani   1.00
C420   C     0.61473   0.49472   0.16770   0.07560  Uani   1.00
N421   N     0.50400   0.46686   0.13623   0.03357  Uani   1.00
N422   N     0.74837   0.27779   0.11335   0.03837  Uani   1.00
C423   C     0.50620   0.44301   0.14285   0.04437  Uani   1.00
C424   C     0.74748   0.30178   0.10643   0.05277  Uani   1.00
C425   C     0.74435   0.35943   0.10528   0.06813  Uani   1.00
C426   C     0.74473   0.38528   0.10520   0.07560  Uani   1.00
N427   N     0.74600   0.28314   0.01123   0.03357  Uani   1.00
N428   N     0.50163   0.47221   0.23835   0.03837  Uani   1.00
C429   C     0.74380   0.30699   0.01785   0.04437  Uani   1.00
C430   C     0.50253   0.44823   0.23143   0.05277  Uani   1.00
C431   C     0.50565   0.39058   0.23028   0.06813  Uani   1.00
C432   C     0.50528   0.36472   0.23020   0.07560  Uani   1.00
N433   N     0.53314   0.49600   0.17627   0.03357  Uani   1.00
N434   N     0.72222   0.25163   0.19915   0.03837  Uani   1.00
C435   C     0.55699   0.49380   0.16965   0.04437  Uani   1.00
C436   C     0.69823   0.25253   0.20608   0.05277  Uani   1.00
C437   C     0.64058   0.25565   0.20723   0.06813  Uani   1.00
C438   C     0.61473   0.25528   0.20730   0.07560  Uani   1.00
N439   N     0.71686   0.25400   0.05127   0.03357  Uani   1.00
N440   N     0.52779   0.49837   0.07415   0.03837  Uani   1.00
C441   C     0.69301   0.25620   0.04465   0.04437  Uani   1.00
C442   C     0.55178   0.49747   0.08108   0.05277  Uani   1.00
C443   C     0.60943   0.49435   0.08223   0.06813  Uani   1.00
C444   C     0.63528   0.49472   0.08230   0.07560  Uani   1.00
N445   N     0.74600   0.46686   0.11377   0.03357  Uani   1.00
N446   N     0.50163   0.27779   0.13665   0.03837  Uani   1.00
C447   C     0.74380   0.44301   0.10715   0.04437  Uani   1.00
C448   C     0.50253   0.30178   0.14358   0.05277  Uani   1.00
C449   C     0.50565   0.35943   0.14473   0.06813  Uani   1.00
C450   C     0.50528   0.38528   0.14480   0.07560  Uani   1.00
N451   N     0.50400   0.28314   0.23877   0.03357  Uani   1.00
N452   N     0.74837   0.47221   0.01165   0.03837  Uani   1.00
C453   C     0.50620   0.30699   0.23215   0.04437  Uani   1.00
C454   C     0.74748   0.44823   0.01857   0.05277  Uani   1.00
C455   C     0.74435   0.39058   0.01973   0.06813  Uani   1.00
C456   C     0.74473   0.36472   0.01980   0.07560  Uani   1.00
Co457  Co    0.74721   0.49721   0.09375   0.02543  Uani   1.00
Co458  Co    0.50279   0.25279   0.21875   0.02543  Uani   1.00
Co459  Co    0.50279   0.49721   0.15625   0.02543  Uani   1.00
Co460  Co    0.74721   0.25279   0.03125   0.02543  Uani   1.00
C461   C     0.56790   0.25000   0.06250   0.04747  Uani   1.00
C462   C     0.67678   0.25000   0.06250   0.04137  Uani   1.00
C463   C     0.64888   0.25000   0.06250   0.05083  Uani   1.00
C464   C     0.59598   0.25000   0.06250   0.05433  Uani   1.00
C465   C     0.68210   0.25000   0.18750   0.04747  Uani   1.00
C466   C     0.57322   0.25000   0.18750   0.04137  Uani   1.00
C467   C     0.60112   0.25000   0.18750   0.05083  Uani   1.00
C468   C     0.65402   0.25000   0.18750   0.05433  Uani   1.00
C469   C     0.50000   0.31790   0.12500   0.04747  Uani   1.00
C470   C     0.50000   0.42678   0.12500   0.04137  Uani   1.00
C471   C     0.50000   0.39888   0.12500   0.05083  Uani   1.00
C472   C     0.50000   0.34598   0.12500   0.05433  Uani   1.00
C473   C     0.50000   0.43210   0.00000   0.04747  Uani   1.00
C474   C     0.50000   0.32322   0.00000   0.04137  Uani   1.00
C475   C     0.50000   0.35112   0.00000   0.05083  Uani   1.00
C476   C     0.50000   0.40402   0.00000   0.05433  Uani   1.00
N477   N     0.96686   0.49600   0.07373   0.03357  Uani   1.00
N478   N     0.77779   0.25163   0.05085   0.03837  Uani   1.00
C479   C     0.94301   0.49380   0.08035   0.04437  Uani   1.00
C480   C     0.80178   0.25253   0.04393   0.05277  Uani   1.00
C481   C     0.85943   0.25565   0.04278   0.06813  Uani   1.00
C482   C     0.88528   0.25528   0.04270   0.07560  Uani   1.00
N483   N     0.78314   0.25400   0.19873   0.03357  Uani   1.00
N484   N     0.97222   0.49837   0.17585   0.03837  Uani   1.00
C485   C     0.80699   0.25620   0.20535   0.04437  Uani   1.00
C486   C     0.94823   0.49747   0.16893   0.05277  Uani   1.00
C487   C     0.89058   0.49435   0.16778   0.06813  Uani   1.00
C488   C     0.86472   0.49472   0.16770   0.07560  Uani   1.00
N489   N     0.75400   0.46686   0.13623   0.03357  Uani   1.00
N490   N     0.99838   0.27779   0.11335   0.03837  Uani   1.00
C491   C     0.75620   0.44301   0.14285   0.04437  Uani   1.00
C492   C     0.99748   0.30178   0.10643   0.05277  Uani   1.00
C493   C     0.99435   0.35943   0.10528   0.06813  Uani   1.00
C494   C     0.99473   0.38528   0.10520   0.07560  Uani   1.00
N495   N     0.99600   0.28314   0.01123   0.03357  Uani   1.00
N496   N     0.75163   0.47221   0.23835   0.03837  Uani   1.00
C497   C     0.99380   0.30699   0.01785   0.04437  Uani   1.00
C498   C     0.75253   0.44823   0.23143   0.05277  Uani   1.00
C499   C     0.75565   0.39058   0.23028   0.06813  Uani   1.00
C500   C     0.75528   0.36472   0.23020   0.07560  Uani   1.00
N501   N     0.78314   0.49600   0.17627   0.03357  Uani   1.00
N502   N     0.97222   0.25163   0.19915   0.03837  Uani   1.00
C503   C     0.80699   0.49380   0.16965   0.04437  Uani   1.00
C504   C     0.94823   0.25253   0.20608   0.05277  Uani   1.00
C505   C     0.89058   0.25565   0.20723   0.06813  Uani   1.00
C506   C     0.86472   0.25528   0.20730   0.07560  Uani   1.00
N507   N     0.96686   0.25400   0.05127   0.03357  Uani   1.00
N508   N     0.77779   0.49837   0.07415   0.03837  Uani   1.00
C509   C     0.94301   0.25620   0.04465   0.04437  Uani   1.00
C510   C     0.80178   0.49747   0.08108   0.05277  Uani   1.00
C511   C     0.85943   0.49435   0.08223   0.06813  Uani   1.00
C512   C     0.88528   0.49472   0.08230   0.07560  Uani   1.00
N513   N     0.99600   0.46686   0.11377   0.03357  Uani   1.00
N514   N     0.75163   0.27779   0.13665   0.03837  Uani   1.00
C515   C     0.99380   0.44301   0.10715   0.04437  Uani   1.00
C516   C     0.75253   0.30178   0.14358   0.05277  Uani   1.00
C517   C     0.75565   0.35943   0.14473   0.06813  Uani   1.00
C518   C     0.75528   0.38528   0.14480   0.07560  Uani   1.00
N519   N     0.75400   0.28314   0.23877   0.03357  Uani   1.00
N520   N     0.99838   0.47221   0.01165   0.03837  Uani   1.00
C521   C     0.75620   0.30699   0.23215   0.04437  Uani   1.00
C522   C     0.99748   0.44823   0.01857   0.05277  Uani   1.00
C523   C     0.99435   0.39058   0.01973   0.06813  Uani   1.00
C524   C     0.99473   0.36472   0.01980   0.07560  Uani   1.00
Co525  Co    0.99721   0.49721   0.09375   0.02543  Uani   1.00
Co526  Co    0.75279   0.25279   0.21875   0.02543  Uani   1.00
Co527  Co    0.75279   0.49721   0.15625   0.02543  Uani   1.00
Co528  Co    0.99721   0.25279   0.03125   0.02543  Uani   1.00
C529   C     0.81790   0.25000   0.06250   0.04747  Uani   1.00
C530   C     0.92678   0.25000   0.06250   0.04137  Uani   1.00
C531   C     0.89888   0.25000   0.06250   0.05083  Uani   1.00
C532   C     0.84598   0.25000   0.06250   0.05433  Uani   1.00
C533   C     0.93210   0.25000   0.18750   0.04747  Uani   1.00
C534   C     0.82322   0.25000   0.18750   0.04137  Uani   1.00
C535   C     0.85113   0.25000   0.18750   0.05083  Uani   1.00
C536   C     0.90403   0.25000   0.18750   0.05433  Uani   1.00
C537   C     0.75000   0.31790   0.12500   0.04747  Uani   1.00
C538   C     0.75000   0.42678   0.12500   0.04137  Uani   1.00
C539   C     0.75000   0.39888   0.12500   0.05083  Uani   1.00
C540   C     0.75000   0.34598   0.12500   0.05433  Uani   1.00
C541   C     0.75000   0.43210   0.00000   0.04747  Uani   1.00
C542   C     0.75000   0.32322   0.00000   0.04137  Uani   1.00
C543   C     0.75000   0.35112   0.00000   0.05083  Uani   1.00
C544   C     0.75000   0.40402   0.00000   0.05433  Uani   1.00
N545   N     0.21686   0.74600   0.07373   0.03357  Uani   1.00
N546   N     0.02778   0.50163   0.05085   0.03837  Uani   1.00
C547   C     0.19301   0.74380   0.08035   0.04437  Uani   1.00
C548   C     0.05177   0.50253   0.04393   0.05277  Uani   1.00
C549   C     0.10943   0.50565   0.04278   0.06813  Uani   1.00
C550   C     0.13528   0.50528   0.04270   0.07560  Uani   1.00
N551   N     0.03314   0.50400   0.19873   0.03357  Uani   1.00
N552   N     0.22221   0.74837   0.17585   0.03837  Uani   1.00
C553   C     0.05699   0.50620   0.20535   0.04437  Uani   1.00
C554   C     0.19823   0.74747   0.16893   0.05277  Uani   1.00
C555   C     0.14057   0.74435   0.16778   0.06813  Uani   1.00
C556   C     0.11472   0.74472   0.16770   0.07560  Uani   1.00
N557   N     0.00400   0.71686   0.13623   0.03357  Uani   1.00
N558   N     0.24837   0.52779   0.11335   0.03837  Uani   1.00
C559   C     0.00620   0.69301   0.14285   0.04437  Uani   1.00
C560   C     0.24748   0.55178   0.10643   0.05277  Uani   1.00
C561   C     0.24435   0.60943   0.10528   0.06813  Uani   1.00
C562   C     0.24473   0.63528   0.10520   0.07560  Uani   1.00
N563   N     0.24600   0.53314   0.01123   0.03357  Uani   1.00
N564   N     0.00163   0.72221   0.23835   0.03837  Uani   1.00
C565   C     0.24380   0.55699   0.01785   0.04437  Uani   1.00
C566   C     0.00253   0.69823   0.23143   0.05277  Uani   1.00
C567   C     0.00565   0.64058   0.23028   0.06813  Uani   1.00
C568   C     0.00528   0.61472   0.23020   0.07560  Uani   1.00
N569   N     0.03314   0.74600   0.17627   0.03357  Uani   1.00
N570   N     0.22221   0.50163   0.19915   0.03837  Uani   1.00
C571   C     0.05699   0.74380   0.16965   0.04437  Uani   1.00
C572   C     0.19823   0.50253   0.20608   0.05277  Uani   1.00
C573   C     0.14057   0.50565   0.20723   0.06813  Uani   1.00
C574   C     0.11472   0.50528   0.20730   0.07560  Uani   1.00
N575   N     0.21686   0.50400   0.05127   0.03357  Uani   1.00
N576   N     0.02778   0.74837   0.07415   0.03837  Uani   1.00
C577   C     0.19301   0.50620   0.04465   0.04437  Uani   1.00
C578   C     0.05177   0.74747   0.08108   0.05277  Uani   1.00
C579   C     0.10943   0.74435   0.08223   0.06813  Uani   1.00
C580   C     0.13528   0.74472   0.08230   0.07560  Uani   1.00
N581   N     0.24600   0.71686   0.11377   0.03357  Uani   1.00
N582   N     0.00163   0.52779   0.13665   0.03837  Uani   1.00
C583   C     0.24380   0.69301   0.10715   0.04437  Uani   1.00
C584   C     0.00253   0.55178   0.14358   0.05277  Uani   1.00
C585   C     0.00565   0.60943   0.14473   0.06813  Uani   1.00
C586   C     0.00528   0.63528   0.14480   0.07560  Uani   1.00
N587   N     0.00400   0.53314   0.23877   0.03357  Uani   1.00
N588   N     0.24837   0.72221   0.01165   0.03837  Uani   1.00
C589   C     0.00620   0.55699   0.23215   0.04437  Uani   1.00
C590   C     0.24748   0.69823   0.01857   0.05277  Uani   1.00
C591   C     0.24435   0.64058   0.01973   0.06813  Uani   1.00
C592   C     0.24473   0.61472   0.01980   0.07560  Uani   1.00
Co593  Co    0.24721   0.74721   0.09375   0.02543  Uani   1.00
Co594  Co    0.00279   0.50279   0.21875   0.02543  Uani   1.00
Co595  Co    0.00279   0.74721   0.15625   0.02543  Uani   1.00
Co596  Co    0.24721   0.50279   0.03125   0.02543  Uani   1.00
C597   C     0.06790   0.50000   0.06250   0.04747  Uani   1.00
C598   C     0.17678   0.50000   0.06250   0.04137  Uani   1.00
C599   C     0.14888   0.50000   0.06250   0.05083  Uani   1.00
C600   C     0.09598   0.50000   0.06250   0.05433  Uani   1.00
C601   C     0.18210   0.50000   0.18750   0.04747  Uani   1.00
C602   C     0.07322   0.50000   0.18750   0.04137  Uani   1.00
C603   C     0.10112   0.50000   0.18750   0.05083  Uani   1.00
C604   C     0.15402   0.50000   0.18750   0.05433  Uani   1.00
C605   C     0.00000   0.56790   0.12500   0.04747  Uani   1.00
C606   C     0.00000   0.67678   0.12500   0.04137  Uani   1.00
C607   C     0.00000   0.64888   0.12500   0.05083  Uani   1.00
C608   C     0.00000   0.59598   0.12500   0.05433  Uani   1.00
C609   C     0.00000   0.68210   0.00000   0.04747  Uani   1.00
C610   C     0.00000   0.57322   0.00000   0.04137  Uani   1.00
C611   C     0.00000   0.60112   0.00000   0.05083  Uani   1.00
C612   C     0.00000   0.65402   0.00000   0.05433  Uani   1.00
N613   N     0.46686   0.74600   0.07373   0.03357  Uani   1.00
N614   N     0.27778   0.50163   0.05085   0.03837  Uani   1.00
C615   C     0.44301   0.74380   0.08035   0.04437  Uani   1.00
C616   C     0.30177   0.50253   0.04393   0.05277  Uani   1.00
C617   C     0.35943   0.50565   0.04278   0.06813  Uani   1.00
C618   C     0.38528   0.50528   0.04270   0.07560  Uani   1.00
N619   N     0.28314   0.50400   0.19873   0.03357  Uani   1.00
N620   N     0.47222   0.74837   0.17585   0.03837  Uani   1.00
C621   C     0.30699   0.50620   0.20535   0.04437  Uani   1.00
C622   C     0.44822   0.74747   0.16893   0.05277  Uani   1.00
C623   C     0.39057   0.74435   0.16778   0.06813  Uani   1.00
C624   C     0.36472   0.74472   0.16770   0.07560  Uani   1.00
N625   N     0.25400   0.71686   0.13623   0.03357  Uani   1.00
N626   N     0.49838   0.52779   0.11335   0.03837  Uani   1.00
C627   C     0.25620   0.69301   0.14285   0.04437  Uani   1.00
C628   C     0.49748   0.55178   0.10643   0.05277  Uani   1.00
C629   C     0.49435   0.60943   0.10528   0.06813  Uani   1.00
C630   C     0.49473   0.63528   0.10520   0.07560  Uani   1.00
N631   N     0.49600   0.53314   0.01123   0.03357  Uani   1.00
N632   N     0.25163   0.72221   0.23835   0.03837  Uani   1.00
C633   C     0.49380   0.55699   0.01785   0.04437  Uani   1.00
C634   C     0.25253   0.69823   0.23143   0.05277  Uani   1.00
C635   C     0.25565   0.64058   0.23028   0.06813  Uani   1.00
C636   C     0.25528   0.61472   0.23020   0.07560  Uani   1.00
N637   N     0.28314   0.74600   0.17627   0.03357  Uani   1.00
N638   N     0.47222   0.50163   0.19915   0.03837  Uani   1.00
C639   C     0.30699   0.74380   0.16965   0.04437  Uani   1.00
C640   C     0.44822   0.50253   0.20608   0.05277  Uani   1.00
C641   C     0.39057   0.50565   0.20723   0.06813  Uani   1.00
C642   C     0.36472   0.50528   0.20730   0.07560  Uani   1.00
N643   N     0.46686   0.50400   0.05127   0.03357  Uani   1.00
N644   N     0.27778   0.74837   0.07415   0.03837  Uani   1.00
C645   C     0.44301   0.50620   0.04465   0.04437  Uani   1.00
C646   C     0.30177   0.74747   0.08108   0.05277  Uani   1.00
C647   C     0.35943   0.74435   0.08223   0.06813  Uani   1.00
C648   C     0.38528   0.74472   0.08230   0.07560  Uani   1.00
N649   N     0.49600   0.71686   0.11377   0.03357  Uani   1.00
N650   N     0.25163   0.52779   0.13665   0.03837  Uani   1.00
C651   C     0.49380   0.69301   0.10715   0.04437  Uani   1.00
C652   C     0.25253   0.55178   0.14358   0.05277  Uani   1.00
C653   C     0.25565   0.60943   0.14473   0.06813  Uani   1.00
C654   C     0.25528   0.63528   0.14480   0.07560  Uani   1.00
N655   N     0.25400   0.53314   0.23877   0.03357  Uani   1.00
N656   N     0.49838   0.72221   0.01165   0.03837  Uani   1.00
C657   C     0.25620   0.55699   0.23215   0.04437  Uani   1.00
C658   C     0.49748   0.69823   0.01857   0.05277  Uani   1.00
C659   C     0.49435   0.64058   0.01973   0.06813  Uani   1.00
C660   C     0.49473   0.61472   0.01980   0.07560  Uani   1.00
Co661  Co    0.49721   0.74721   0.09375   0.02543  Uani   1.00
Co662  Co    0.25279   0.50279   0.21875   0.02543  Uani   1.00
Co663  Co    0.25279   0.74721   0.15625   0.02543  Uani   1.00
Co664  Co    0.49721   0.50279   0.03125   0.02543  Uani   1.00
C665   C     0.31790   0.50000   0.06250   0.04747  Uani   1.00
C666   C     0.42678   0.50000   0.06250   0.04137  Uani   1.00
C667   C     0.39888   0.50000   0.06250   0.05083  Uani   1.00
C668   C     0.34598   0.50000   0.06250   0.05433  Uani   1.00
C669   C     0.43210   0.50000   0.18750   0.04747  Uani   1.00
C670   C     0.32322   0.50000   0.18750   0.04137  Uani   1.00
C671   C     0.35112   0.50000   0.18750   0.05083  Uani   1.00
C672   C     0.40403   0.50000   0.18750   0.05433  Uani   1.00
C673   C     0.25000   0.56790   0.12500   0.04747  Uani   1.00
C674   C     0.25000   0.67678   0.12500   0.04137  Uani   1.00
C675   C     0.25000   0.64888   0.12500   0.05083  Uani   1.00
C676   C     0.25000   0.59598   0.12500   0.05433  Uani   1.00
C677   C     0.25000   0.68210   0.00000   0.04747  Uani   1.00
C678   C     0.25000   0.57322   0.00000   0.04137  Uani   1.00
C679   C     0.25000   0.60112   0.00000   0.05083  Uani   1.00
C680   C     0.25000   0.65402   0.00000   0.05433  Uani   1.00
N681   N     0.71686   0.74600   0.07373   0.03357  Uani   1.00
N682   N     0.52779   0.50163   0.05085   0.03837  Uani   1.00
C683   C     0.69301   0.74380   0.08035   0.04437  Uani   1.00
C684   C     0.55178   0.50253   0.04393   0.05277  Uani   1.00
C685   C     0.60943   0.50565   0.04278   0.06813  Uani   1.00
C686   C     0.63528   0.50528   0.04270   0.07560  Uani   1.00
N687   N     0.53314   0.50400   0.19873   0.03357  Uani   1.00
N688   N     0.72222   0.74837   0.17585   0.03837  Uani   1.00
C689   C     0.55699   0.50620   0.20535   0.04437  Uani   1.00
C690   C     0.69823   0.74747   0.16893   0.05277  Uani   1.00
C691   C     0.64058   0.74435   0.16778   0.06813  Uani   1.00
C692   C     0.61473   0.74472   0.16770   0.07560  Uani   1.00
N693   N     0.50400   0.71686   0.13623   0.03357  Uani   1.00
N694   N     0.74837   0.52779   0.11335   0.03837  Uani   1.00
C695   C     0.50620   0.69301   0.14285   0.04437  Uani   1.00
C696   C     0.74748   0.55178   0.10643   0.05277  Uani   1.00
C697   C     0.74435   0.60943   0.10528   0.06813  Uani   1.00
C698   C     0.74473   0.63528   0.10520   0.07560  Uani   1.00
N699   N     0.74600   0.53314   0.01123   0.03357  Uani   1.00
N700   N     0.50163   0.72221   0.23835   0.03837  Uani   1.00
C701   C     0.74380   0.55699   0.01785   0.04437  Uani   1.00
C702   C     0.50253   0.69823   0.23143   0.05277  Uani   1.00
C703   C     0.50565   0.64058   0.23028   0.06813  Uani   1.00
C704   C     0.50528   0.61472   0.23020   0.07560  Uani   1.00
N705   N     0.53314   0.74600   0.17627   0.03357  Uani   1.00
N706   N     0.72222   0.50163   0.19915   0.03837  Uani   1.00
C707   C     0.55699   0.74380   0.16965   0.04437  Uani   1.00
C708   C     0.69823   0.50253   0.20608   0.05277  Uani   1.00
C709   C     0.64058   0.50565   0.20723   0.06813  Uani   1.00
C710   C     0.61473   0.50528   0.20730   0.07560  Uani   1.00
N711   N     0.71686   0.50400   0.05127   0.03357  Uani   1.00
N712   N     0.52779   0.74837   0.07415   0.03837  Uani   1.00
C713   C     0.69301   0.50620   0.04465   0.04437  Uani   1.00
C714   C     0.55178   0.74747   0.08108   0.05277  Uani   1.00
C715   C     0.60943   0.74435   0.08223   0.06813  Uani   1.00
C716   C     0.63528   0.74472   0.08230   0.07560  Uani   1.00
N717   N     0.74600   0.71686   0.11377   0.03357  Uani   1.00
N718   N     0.50163   0.52779   0.13665   0.03837  Uani   1.00
C719   C     0.74380   0.69301   0.10715   0.04437  Uani   1.00
C720   C     0.50253   0.55178   0.14358   0.05277  Uani   1.00
C721   C     0.50565   0.60943   0.14473   0.06813  Uani   1.00
C722   C     0.50528   0.63528   0.14480   0.07560  Uani   1.00
N723   N     0.50400   0.53314   0.23877   0.03357  Uani   1.00
N724   N     0.74837   0.72221   0.01165   0.03837  Uani   1.00
C725   C     0.50620   0.55699   0.23215   0.04437  Uani   1.00
C726   C     0.74748   0.69823   0.01857   0.05277  Uani   1.00
C727   C     0.74435   0.64058   0.01973   0.06813  Uani   1.00
C728   C     0.74473   0.61472   0.01980   0.07560  Uani   1.00
Co729  Co    0.74721   0.74721   0.09375   0.02543  Uani   1.00
Co730  Co    0.50279   0.50279   0.21875   0.02543  Uani   1.00
Co731  Co    0.50279   0.74721   0.15625   0.02543  Uani   1.00
Co732  Co    0.74721   0.50279   0.03125   0.02543  Uani   1.00
C733   C     0.56790   0.50000   0.06250   0.04747  Uani   1.00
C734   C     0.67678   0.50000   0.06250   0.04137  Uani   1.00
C735   C     0.64888   0.50000   0.06250   0.05083  Uani   1.00
C736   C     0.59598   0.50000   0.06250   0.05433  Uani   1.00
C737   C     0.68210   0.50000   0.18750   0.04747  Uani   1.00
C738   C     0.57322   0.50000   0.18750   0.04137  Uani   1.00
C739   C     0.60112   0.50000   0.18750   0.05083  Uani   1.00
C740   C     0.65402   0.50000   0.18750   0.05433  Uani   1.00
C741   C     0.50000   0.56790   0.12500   0.04747  Uani   1.00
C742   C     0.50000   0.67678   0.12500   0.04137  Uani   1.00
C743   C     0.50000   0.64888   0.12500   0.05083  Uani   1.00
C744   C     0.50000   0.59598   0.12500   0.05433  Uani   1.00
C745   C     0.50000   0.68210   0.00000   0.04747  Uani   1.00
C746   C     0.50000   0.57322   0.00000   0.04137  Uani   1.00
C747   C     0.50000   0.60112   0.00000   0.05083  Uani   1.00
C748   C     0.50000   0.65402   0.00000   0.05433  Uani   1.00
N749   N     0.96686   0.74600   0.07373   0.03357  Uani   1.00
N750   N     0.77779   0.50163   0.05085   0.03837  Uani   1.00
C751   C     0.94301   0.74380   0.08035   0.04437  Uani   1.00
C752   C     0.80178   0.50253   0.04393   0.05277  Uani   1.00
C753   C     0.85943   0.50565   0.04278   0.06813  Uani   1.00
C754   C     0.88528   0.50528   0.04270   0.07560  Uani   1.00
N755   N     0.78314   0.50400   0.19873   0.03357  Uani   1.00
N756   N     0.97222   0.74837   0.17585   0.03837  Uani   1.00
C757   C     0.80699   0.50620   0.20535   0.04437  Uani   1.00
C758   C     0.94823   0.74747   0.16893   0.05277  Uani   1.00
C759   C     0.89058   0.74435   0.16778   0.06813  Uani   1.00
C760   C     0.86472   0.74472   0.16770   0.07560  Uani   1.00
N761   N     0.75400   0.71686   0.13623   0.03357  Uani   1.00
N762   N     0.99838   0.52779   0.11335   0.03837  Uani   1.00
C763   C     0.75620   0.69301   0.14285   0.04437  Uani   1.00
C764   C     0.99748   0.55178   0.10643   0.05277  Uani   1.00
C765   C     0.99435   0.60943   0.10528   0.06813  Uani   1.00
C766   C     0.99473   0.63528   0.10520   0.07560  Uani   1.00
N767   N     0.99600   0.53314   0.01123   0.03357  Uani   1.00
N768   N     0.75163   0.72221   0.23835   0.03837  Uani   1.00
C769   C     0.99380   0.55699   0.01785   0.04437  Uani   1.00
C770   C     0.75253   0.69823   0.23143   0.05277  Uani   1.00
C771   C     0.75565   0.64058   0.23028   0.06813  Uani   1.00
C772   C     0.75528   0.61472   0.23020   0.07560  Uani   1.00
N773   N     0.78314   0.74600   0.17627   0.03357  Uani   1.00
N774   N     0.97222   0.50163   0.19915   0.03837  Uani   1.00
C775   C     0.80699   0.74380   0.16965   0.04437  Uani   1.00
C776   C     0.94823   0.50253   0.20608   0.05277  Uani   1.00
C777   C     0.89058   0.50565   0.20723   0.06813  Uani   1.00
C778   C     0.86472   0.50528   0.20730   0.07560  Uani   1.00
N779   N     0.96686   0.50400   0.05127   0.03357  Uani   1.00
N780   N     0.77779   0.74837   0.07415   0.03837  Uani   1.00
C781   C     0.94301   0.50620   0.04465   0.04437  Uani   1.00
C782   C     0.80178   0.74747   0.08108   0.05277  Uani   1.00
C783   C     0.85943   0.74435   0.08223   0.06813  Uani   1.00
C784   C     0.88528   0.74472   0.08230   0.07560  Uani   1.00
N785   N     0.99600   0.71686   0.11377   0.03357  Uani   1.00
N786   N     0.75163   0.52779   0.13665   0.03837  Uani   1.00
C787   C     0.99380   0.69301   0.10715   0.04437  Uani   1.00
C788   C     0.75253   0.55178   0.14358   0.05277  Uani   1.00
C789   C     0.75565   0.60943   0.14473   0.06813  Uani   1.00
C790   C     0.75528   0.63528   0.14480   0.07560  Uani   1.00
N791   N     0.75400   0.53314   0.23877   0.03357  Uani   1.00
N792   N     0.99838   0.72221   0.01165   0.03837  Uani   1.00
C793   C     0.75620   0.55699   0.23215   0.04437  Uani   1.00
C794   C     0.99748   0.69823   0.01857   0.05277  Uani   1.00
C795   C     0.99435   0.64058   0.01973   0.06813  Uani   1.00
C796   C     0.99473   0.61472   0.01980   0.07560  Uani   1.00
Co797  Co    0.99721   0.74721   0.09375   0.02543  Uani   1.00
Co798  Co    0.75279   0.50279   0.21875   0.02543  Uani   1.00
Co799  Co    0.75279   0.74721   0.15625   0.02543  Uani   1.00
Co800  Co    0.99721   0.50279   0.03125   0.02543  Uani   1.00
C801   C     0.81790   0.50000   0.06250   0.04747  Uani   1.00
C802   C     0.92678   0.50000   0.06250   0.04137  Uani   1.00
C803   C     0.89888   0.50000   0.06250   0.05083  Uani   1.00
C804   C     0.84598   0.50000   0.06250   0.05433  Uani   1.00
C805   C     0.93210   0.50000   0.18750   0.04747  Uani   1.00
C806   C     0.82322   0.50000   0.18750   0.04137  Uani   1.00
C807   C     0.85113   0.50000   0.18750   0.05083  Uani   1.00
C808   C     0.90403   0.50000   0.18750   0.05433  Uani   1.00
C809   C     0.75000   0.56790   0.12500   0.04747  Uani   1.00
C810   C     0.75000   0.67678   0.12500   0.04137  Uani   1.00
C811   C     0.75000   0.64888   0.12500   0.05083  Uani   1.00
C812   C     0.75000   0.59598   0.12500   0.05433  Uani   1.00
C813   C     0.75000   0.68210   0.00000   0.04747  Uani   1.00
C814   C     0.75000   0.57322   0.00000   0.04137  Uani   1.00
C815   C     0.75000   0.60112   0.00000   0.05083  Uani   1.00
C816   C     0.75000   0.65402   0.00000   0.05433  Uani   1.00
N817   N     0.21686   0.99600   0.07373   0.03357  Uani   1.00
N818   N     0.02778   0.75163   0.05085   0.03837  Uani   1.00
C819   C     0.19301   0.99380   0.08035   0.04437  Uani   1.00
C820   C     0.05177   0.75253   0.04393   0.05277  Uani   1.00
C821   C     0.10943   0.75565   0.04278   0.06813  Uani   1.00
C822   C     0.13528   0.75528   0.04270   0.07560  Uani   1.00
N823   N     0.03314   0.75400   0.19873   0.03357  Uani   1.00
N824   N     0.22221   0.99837   0.17585   0.03837  Uani   1.00
C825   C     0.05699   0.75620   0.20535   0.04437  Uani   1.00
C826   C     0.19823   0.99747   0.16893   0.05277  Uani   1.00
C827   C     0.14057   0.99435   0.16778   0.06813  Uani   1.00
C828   C     0.11472   0.99473   0.16770   0.07560  Uani   1.00
N829   N     0.00400   0.96686   0.13623   0.03357  Uani   1.00
N830   N     0.24837   0.77779   0.11335   0.03837  Uani   1.00
C831   C     0.00620   0.94301   0.14285   0.04437  Uani   1.00
C832   C     0.24748   0.80178   0.10643   0.05277  Uani   1.00
C833   C     0.24435   0.85943   0.10528   0.06813  Uani   1.00
C834   C     0.24473   0.88528   0.10520   0.07560  Uani   1.00
N835   N     0.24600   0.78314   0.01123   0.03357  Uani   1.00
N836   N     0.00163   0.97221   0.23835   0.03837  Uani   1.00
C837   C     0.24380   0.80699   0.01785   0.04437  Uani   1.00
C838   C     0.00253   0.94823   0.23143   0.05277  Uani   1.00
C839   C     0.00565   0.89058   0.23028   0.06813  Uani   1.00
C840   C     0.00528   0.86472   0.23020   0.07560  Uani   1.00
N841   N     0.03314   0.99600   0.17627   0.03357  Uani   1.00
N842   N     0.22221   0.75163   0.19915   0.03837  Uani   1.00
C843   C     0.05699   0.99380   0.16965   0.04437  Uani   1.00
C844   C     0.19823   0.75253   0.20608   0.05277  Uani   1.00
C845   C     0.14057   0.75565   0.20723   0.06813  Uani   1.00
C846   C     0.11472   0.75528   0.20730   0.07560  Uani   1.00
N847   N     0.21686   0.75400   0.05127   0.03357  Uani   1.00
N848   N     0.02778   0.99837   0.07415   0.03837  Uani   1.00
C849   C     0.19301   0.75620   0.04465   0.04437  Uani   1.00
C850   C     0.05177   0.99747   0.08108   0.05277  Uani   1.00
C851   C     0.10943   0.99435   0.08223   0.06813  Uani   1.00
C852   C     0.13528   0.99473   0.08230   0.07560  Uani   1.00
N853   N     0.24600   0.96686   0.11377   0.03357  Uani   1.00
N854   N     0.00163   0.77779   0.13665   0.03837  Uani   1.00
C855   C     0.24380   0.94301   0.10715   0.04437  Uani   1.00
C856   C     0.00253   0.80178   0.14358   0.05277  Uani   1.00
C857   C     0.00565   0.85943   0.14473   0.06813  Uani   1.00
C858   C     0.00528   0.88528   0.14480   0.07560  Uani   1.00
N859   N     0.00400   0.78314   0.23877   0.03357  Uani   1.00
N860   N     0.24837   0.97221   0.01165   0.03837  Uani   1.00
C861   C     0.00620   0.80699   0.23215   0.04437  Uani   1.00
C862   C     0.24748   0.94823   0.01857   0.05277  Uani   1.00
C863   C     0.24435   0.89058   0.01973   0.06813  Uani   1.00
C864   C     0.24473   0.86472   0.01980   0.07560  Uani   1.00
Co865  Co    0.24721   0.99721   0.09375   0.02543  Uani   1.00
Co866  Co    0.00279   0.75279   0.21875   0.02543  Uani   1.00
Co867  Co    0.00279   0.99721   0.15625   0.02543  Uani   1.00
Co868  Co    0.24721   0.75279   0.03125   0.02543  Uani   1.00
C869   C     0.06790   0.75000   0.06250   0.04747  Uani   1.00
C870   C     0.17678   0.75000   0.06250   0.04137  Uani   1.00
C871   C     0.14888   0.75000   0.06250   0.05083  Uani   1.00
C872   C     0.09598   0.75000   0.06250   0.05433  Uani   1.00
C873   C     0.18210   0.75000   0.18750   0.04747  Uani   1.00
C874   C     0.07322   0.75000   0.18750   0.04137  Uani   1.00
C875   C     0.10112   0.75000   0.18750   0.05083  Uani   1.00
C876   C     0.15402   0.75000   0.18750   0.05433  Uani   1.00
C877   C     0.00000   0.81790   0.12500   0.04747  Uani   1.00
C878   C     0.00000   0.92678   0.12500   0.04137  Uani   1.00
C879   C     0.00000   0.89888   0.12500   0.05083  Uani   1.00
C880   C     0.00000   0.84598   0.12500   0.05433  Uani   1.00
C881   C     0.00000   0.93210   0.00000   0.04747  Uani   1.00
C882   C     0.00000   0.82322   0.00000   0.04137  Uani   1.00
C883   C     0.00000   0.85112   0.00000   0.05083  Uani   1.00
C884   C     0.00000   0.90402   0.00000   0.05433  Uani   1.00
N885   N     0.46686   0.99600   0.07373   0.03357  Uani   1.00
N886   N     0.27778   0.75163   0.05085   0.03837  Uani   1.00
C887   C     0.44301   0.99380   0.08035   0.04437  Uani   1.00
C888   C     0.30177   0.75253   0.04393   0.05277  Uani   1.00
C889   C     0.35943   0.75565   0.04278   0.06813  Uani   1.00
C890   C     0.38528   0.75528   0.04270   0.07560  Uani   1.00
N891   N     0.28314   0.75400   0.19873   0.03357  Uani   1.00
N892   N     0.47222   0.99837   0.17585   0.03837  Uani   1.00
C893   C     0.30699   0.75620   0.20535   0.04437  Uani   1.00
C894   C     0.44822   0.99747   0.16893   0.05277  Uani   1.00
C895   C     0.39057   0.99435   0.16778   0.06813  Uani   1.00
C896   C     0.36472   0.99473   0.16770   0.07560  Uani   1.00
N897   N     0.25400   0.96686   0.13623   0.03357  Uani   1.00
N898   N     0.49838   0.77779   0.11335   0.03837  Uani   1.00
C899   C     0.25620   0.94301   0.14285   0.04437  Uani   1.00
C900   C     0.49748   0.80178   0.10643   0.05277  Uani   1.00
C901   C     0.49435   0.85943   0.10528   0.06813  Uani   1.00
C902   C     0.49473   0.88528   0.10520   0.07560  Uani   1.00
N903   N     0.49600   0.78314   0.01123   0.03357  Uani   1.00
N904   N     0.25163   0.97221   0.23835   0.03837  Uani   1.00
C905   C     0.49380   0.80699   0.01785   0.04437  Uani   1.00
C906   C     0.25253   0.94823   0.23143   0.05277  Uani   1.00
C907   C     0.25565   0.89058   0.23028   0.06813  Uani   1.00
C908   C     0.25528   0.86472   0.23020   0.07560  Uani   1.00
N909   N     0.28314   0.99600   0.17627   0.03357  Uani   1.00
N910   N     0.47222   0.75163   0.19915   0.03837  Uani   1.00
C911   C     0.30699   0.99380   0.16965   0.04437  Uani   1.00
C912   C     0.44822   0.75253   0.20608   0.05277  Uani   1.00
C913   C     0.39057   0.75565   0.20723   0.06813  Uani   1.00
C914   C     0.36472   0.75528   0.20730   0.07560  Uani   1.00
N915   N     0.46686   0.75400   0.05127   0.03357  Uani   1.00
N916   N     0.27778   0.99837   0.07415   0.03837  Uani   1.00
C917   C     0.44301   0.75620   0.04465   0.04437  Uani   1.00
C918   C     0.30177   0.99747   0.08108   0.05277  Uani   1.00
C919   C     0.35943   0.99435   0.08223   0.06813  Uani   1.00
C920   C     0.38528   0.99473   0.08230   0.07560  Uani   1.00
N921   N     0.49600   0.96686   0.11377   0.03357  Uani   1.00
N922   N     0.25163   0.77779   0.13665   0.03837  Uani   1.00
C923   C     0.49380   0.94301   0.10715   0.04437  Uani   1.00
C924   C     0.25253   0.80178   0.14358   0.05277  Uani   1.00
C925   C     0.25565   0.85943   0.14473   0.06813  Uani   1.00
C926   C     0.25528   0.88528   0.14480   0.07560  Uani   1.00
N927   N     0.25400   0.78314   0.23877   0.03357  Uani   1.00
N928   N     0.49838   0.97221   0.01165   0.03837  Uani   1.00
C929   C     0.25620   0.80699   0.23215   0.04437  Uani   1.00
C930   C     0.49748   0.94823   0.01857   0.05277  Uani   1.00
C931   C     0.49435   0.89058   0.01973   0.06813  Uani   1.00
C932   C     0.49473   0.86472   0.01980   0.07560  Uani   1.00
Co933  Co    0.49721   0.99721   0.09375   0.02543  Uani   1.00
Co934  Co    0.25279   0.75279   0.21875   0.02543  Uani   1.00
Co935  Co    0.25279   0.99721   0.15625   0.02543  Uani   1.00
Co936  Co    0.49721   0.75279   0.03125   0.02543  Uani   1.00
C937   C     0.31790   0.75000   0.06250   0.04747  Uani   1.00
C938   C     0.42678   0.75000   0.06250   0.04137  Uani   1.00
C939   C     0.39888   0.75000   0.06250   0.05083  Uani   1.00
C940   C     0.34598   0.75000   0.06250   0.05433  Uani   1.00
C941   C     0.43210   0.75000   0.18750   0.04747  Uani   1.00
C942   C     0.32322   0.75000   0.18750   0.04137  Uani   1.00
C943   C     0.35112   0.75000   0.18750   0.05083  Uani   1.00
C944   C     0.40403   0.75000   0.18750   0.05433  Uani   1.00
C945   C     0.25000   0.81790   0.12500   0.04747  Uani   1.00
C946   C     0.25000   0.92678   0.12500   0.04137  Uani   1.00
C947   C     0.25000   0.89888   0.12500   0.05083  Uani   1.00
C948   C     0.25000   0.84598   0.12500   0.05433  Uani   1.00
C949   C     0.25000   0.93210   0.00000   0.04747  Uani   1.00
C950   C     0.25000   0.82322   0.00000   0.04137  Uani   1.00
C951   C     0.25000   0.85112   0.00000   0.05083  Uani   1.00
C952   C     0.25000   0.90402   0.00000   0.05433  Uani   1.00
N953   N     0.71686   0.99600   0.07373   0.03357  Uani   1.00
N954   N     0.52779   0.75163   0.05085   0.03837  Uani   1.00
C955   C     0.69301   0.99380   0.08035   0.04437  Uani   1.00
C956   C     0.55178   0.75253   0.04393   0.05277  Uani   1.00
C957   C     0.60943   0.75565   0.04278   0.06813  Uani   1.00
C958   C     0.63528   0.75528   0.04270   0.07560  Uani   1.00
N959   N     0.53314   0.75400   0.19873   0.03357  Uani   1.00
N960   N     0.72222   0.99837   0.17585   0.03837  Uani   1.00
C961   C     0.55699   0.75620   0.20535   0.04437  Uani   1.00
C962   C     0.69823   0.99747   0.16893   0.05277  Uani   1.00
C963   C     0.64058   0.99435   0.16778   0.06813  Uani   1.00
C964   C     0.61473   0.99473   0.16770   0.07560  Uani   1.00
N965   N     0.50400   0.96686   0.13623   0.03357  Uani   1.00
N966   N     0.74837   0.77779   0.11335   0.03837  Uani   1.00
C967   C     0.50620   0.94301   0.14285   0.04437  Uani   1.00
C968   C     0.74748   0.80178   0.10643   0.05277  Uani   1.00
C969   C     0.74435   0.85943   0.10528   0.06813  Uani   1.00
C970   C     0.74473   0.88528   0.10520   0.07560  Uani   1.00
N971   N     0.74600   0.78314   0.01123   0.03357  Uani   1.00
N972   N     0.50163   0.97221   0.23835   0.03837  Uani   1.00
C973   C     0.74380   0.80699   0.01785   0.04437  Uani   1.00
C974   C     0.50253   0.94823   0.23143   0.05277  Uani   1.00
C975   C     0.50565   0.89058   0.23028   0.06813  Uani   1.00
C976   C     0.50528   0.86472   0.23020   0.07560  Uani   1.00
N977   N     0.53314   0.99600   0.17627   0.03357  Uani   1.00
N978   N     0.72222   0.75163   0.19915   0.03837  Uani   1.00
C979   C     0.55699   0.99380   0.16965   0.04437  Uani   1.00
C980   C     0.69823   0.75253   0.20608   0.05277  Uani   1.00
C981   C     0.64058   0.75565   0.20723   0.06813  Uani   1.00
C982   C     0.61473   0.75528   0.20730   0.07560  Uani   1.00
N983   N     0.71686   0.75400   0.05127   0.03357  Uani   1.00
N984   N     0.52779   0.99837   0.07415   0.03837  Uani   1.00
C985   C     0.69301   0.75620   0.04465   0.04437  Uani   1.00
C986   C     0.55178   0.99747   0.08108   0.05277  Uani   1.00
C987   C     0.60943   0.99435   0.08223   0.06813  Uani   1.00
C988   C     0.63528   0.99473   0.08230   0.07560  Uani   1.00
N989   N     0.74600   0.96686   0.11377   0.03357  Uani   1.00
N990   N     0.50163   0.77779   0.13665   0.03837  Uani   1.00
C991   C     0.74380   0.94301   0.10715   0.04437  Uani   1.00
C992   C     0.50253   0.80178   0.14358   0.05277  Uani   1.00
C993   C     0.50565   0.85943   0.14473   0.06813  Uani   1.00
C994   C     0.50528   0.88528   0.14480   0.07560  Uani   1.00
N995   N     0.50400   0.78314   0.23877   0.03357  Uani   1.00
N996   N     0.74837   0.97221   0.01165   0.03837  Uani   1.00
C997   C     0.50620   0.80699   0.23215   0.04437  Uani   1.00
C998   C     0.74748   0.94823   0.01857   0.05277  Uani   1.00
C999   C     0.74435   0.89058   0.01973   0.06813  Uani   1.00
C1000  C     0.74473   0.86472   0.01980   0.07560  Uani   1.00
Co1001 Co    0.74721   0.99721   0.09375   0.02543  Uani   1.00
Co1002 Co    0.50279   0.75279   0.21875   0.02543  Uani   1.00
Co1003 Co    0.50279   0.99721   0.15625   0.02543  Uani   1.00
Co1004 Co    0.74721   0.75279   0.03125   0.02543  Uani   1.00
C1005  C     0.56790   0.75000   0.06250   0.04747  Uani   1.00
C1006  C     0.67678   0.75000   0.06250   0.04137  Uani   1.00
C1007  C     0.64888   0.75000   0.06250   0.05083  Uani   1.00
C1008  C     0.59598   0.75000   0.06250   0.05433  Uani   1.00
C1009  C     0.68210   0.75000   0.18750   0.04747  Uani   1.00
C1010  C     0.57322   0.75000   0.18750   0.04137  Uani   1.00
C1011  C     0.60112   0.75000   0.18750   0.05083  Uani   1.00
C1012  C     0.65402   0.75000   0.18750   0.05433  Uani   1.00
C1013  C     0.50000   0.81790   0.12500   0.04747  Uani   1.00
C1014  C     0.50000   0.92678   0.12500   0.04137  Uani   1.00
C1015  C     0.50000   0.89888   0.12500   0.05083  Uani   1.00
C1016  C     0.50000   0.84598   0.12500   0.05433  Uani   1.00
C1017  C     0.50000   0.93210   0.00000   0.04747  Uani   1.00
C1018  C     0.50000   0.82322   0.00000   0.04137  Uani   1.00
C1019  C     0.50000   0.85112   0.00000   0.05083  Uani   1.00
C1020  C     0.50000   0.90402   0.00000   0.05433  Uani   1.00
N1021  N     0.96686   0.99600   0.07373   0.03357  Uani   1.00
N1022  N     0.77779   0.75163   0.05085   0.03837  Uani   1.00
C1023  C     0.94301   0.99380   0.08035   0.04437  Uani   1.00
C1024  C     0.80178   0.75253   0.04393   0.05277  Uani   1.00
C1025  C     0.85943   0.75565   0.04278   0.06813  Uani   1.00
C1026  C     0.88528   0.75528   0.04270   0.07560  Uani   1.00
N1027  N     0.78314   0.75400   0.19873   0.03357  Uani   1.00
N1028  N     0.97222   0.99837   0.17585   0.03837  Uani   1.00
C1029  C     0.80699   0.75620   0.20535   0.04437  Uani   1.00
C1030  C     0.94823   0.99747   0.16893   0.05277  Uani   1.00
C1031  C     0.89058   0.99435   0.16778   0.06813  Uani   1.00
C1032  C     0.86472   0.99473   0.16770   0.07560  Uani   1.00
N1033  N     0.75400   0.96686   0.13623   0.03357  Uani   1.00
N1034  N     0.99838   0.77779   0.11335   0.03837  Uani   1.00
C1035  C     0.75620   0.94301   0.14285   0.04437  Uani   1.00
C1036  C     0.99748   0.80178   0.10643   0.05277  Uani   1.00
C1037  C     0.99435   0.85943   0.10528   0.06813  Uani   1.00
C1038  C     0.99473   0.88528   0.10520   0.07560  Uani   1.00
N1039  N     0.99600   0.78314   0.01123   0.03357  Uani   1.00
N1040  N     0.75163   0.97221   0.23835   0.03837  Uani   1.00
C1041  C     0.99380   0.80699   0.01785   0.04437  Uani   1.00
C1042  C     0.75253   0.94823   0.23143   0.05277  Uani   1.00
C1043  C     0.75565   0.89058   0.23028   0.06813  Uani   1.00
C1044  C     0.75528   0.86472   0.23020   0.07560  Uani   1.00
N1045  N     0.78314   0.99600   0.17627   0.03357  Uani   1.00
N1046  N     0.97222   0.75163   0.19915   0.03837  Uani   1.00
C1047  C     0.80699   0.99380   0.16965   0.04437  Uani   1.00
C1048  C     0.94823   0.75253   0.20608   0.05277  Uani   1.00
C1049  C     0.89058   0.75565   0.20723   0.06813  Uani   1.00
C1050  C     0.86472   0.75528   0.20730   0.07560  Uani   1.00
N1051  N     0.96686   0.75400   0.05127   0.03357  Uani   1.00
N1052  N     0.77779   0.99837   0.07415   0.03837  Uani   1.00
C1053  C     0.94301   0.75620   0.04465   0.04437  Uani   1.00
C1054  C     0.80178   0.99747   0.08108   0.05277  Uani   1.00
C1055  C     0.85943   0.99435   0.08223   0.06813  Uani   1.00
C1056  C     0.88528   0.99473   0.08230   0.07560  Uani   1.00
N1057  N     0.99600   0.96686   0.11377   0.03357  Uani   1.00
N1058  N     0.75163   0.77779   0.13665   0.03837  Uani   1.00
C1059  C     0.99380   0.94301   0.10715   0.04437  Uani   1.00
C1060  C     0.75253   0.80178   0.14358   0.05277  Uani   1.00
C1061  C     0.75565   0.85943   0.14473   0.06813  Uani   1.00
C1062  C     0.75528   0.88528   0.14480   0.07560  Uani   1.00
N1063  N     0.75400   0.78314   0.23877   0.03357  Uani   1.00
N1064  N     0.99838   0.97221   0.01165   0.03837  Uani   1.00
C1065  C     0.75620   0.80699   0.23215   0.04437  Uani   1.00
C1066  C     0.99748   0.94823   0.01857   0.05277  Uani   1.00
C1067  C     0.99435   0.89058   0.01973   0.06813  Uani   1.00
C1068  C     0.99473   0.86472   0.01980   0.07560  Uani   1.00
Co1069 Co    0.99721   0.99721   0.09375   0.02543  Uani   1.00
Co1070 Co    0.75279   0.75279   0.21875   0.02543  Uani   1.00
Co1071 Co    0.75279   0.99721   0.15625   0.02543  Uani   1.00
Co1072 Co    0.99721   0.75279   0.03125   0.02543  Uani   1.00
C1073  C     0.81790   0.75000   0.06250   0.04747  Uani   1.00
C1074  C     0.92678   0.75000   0.06250   0.04137  Uani   1.00
C1075  C     0.89888   0.75000   0.06250   0.05083  Uani   1.00
C1076  C     0.84598   0.75000   0.06250   0.05433  Uani   1.00
C1077  C     0.93210   0.75000   0.18750   0.04747  Uani   1.00
C1078  C     0.82322   0.75000   0.18750   0.04137  Uani   1.00
C1079  C     0.85113   0.75000   0.18750   0.05083  Uani   1.00
C1080  C     0.90403   0.75000   0.18750   0.05433  Uani   1.00
C1081  C     0.75000   0.81790   0.12500   0.04747  Uani   1.00
C1082  C     0.75000   0.92678   0.12500   0.04137  Uani   1.00
C1083  C     0.75000   0.89888   0.12500   0.05083  Uani   1.00
C1084  C     0.75000   0.84598   0.12500   0.05433  Uani   1.00
C1085  C     0.75000   0.93210   0.00000   0.04747  Uani   1.00
C1086  C     0.75000   0.82322   0.00000   0.04137  Uani   1.00
C1087  C     0.75000   0.85112   0.00000   0.05083  Uani   1.00
C1088  C     0.75000   0.90402   0.00000   0.05433  Uani   1.00
N1089  N     0.21686   0.24600   0.32373   0.03357  Uani   1.00
N1090  N     0.02778   0.00163   0.30085   0.03837  Uani   1.00
C1091  C     0.19301   0.24380   0.33035   0.04437  Uani   1.00
C1092  C     0.05177   0.00253   0.29393   0.05277  Uani   1.00
C1093  C     0.10943   0.00565   0.29278   0.06813  Uani   1.00
C1094  C     0.13528   0.00528   0.29270   0.07560  Uani   1.00
N1095  N     0.03314   0.00400   0.44873   0.03357  Uani   1.00
N1096  N     0.22221   0.24837   0.42585   0.03837  Uani   1.00
C1097  C     0.05699   0.00620   0.45535   0.04437  Uani   1.00
C1098  C     0.19823   0.24747   0.41893   0.05277  Uani   1.00
C1099  C     0.14057   0.24435   0.41778   0.06813  Uani   1.00
C1100  C     0.11472   0.24472   0.41770   0.07560  Uani   1.00
N1101  N     0.00400   0.21686   0.38623   0.03357  Uani   1.00
N1102  N     0.24837   0.02779   0.36335   0.03837  Uani   1.00
C1103  C     0.00620   0.19301   0.39285   0.04437  Uani   1.00
C1104  C     0.24748   0.05178   0.35643   0.05277  Uani   1.00
C1105  C     0.24435   0.10943   0.35528   0.06813  Uani   1.00
C1106  C     0.24473   0.13528   0.35520   0.07560  Uani   1.00
N1107  N     0.24600   0.03314   0.26123   0.03357  Uani   1.00
N1108  N     0.00163   0.22221   0.48835   0.03837  Uani   1.00
C1109  C     0.24380   0.05699   0.26785   0.04437  Uani   1.00
C1110  C     0.00253   0.19823   0.48143   0.05277  Uani   1.00
C1111  C     0.00565   0.14058   0.48028   0.06813  Uani   1.00
C1112  C     0.00528   0.11472   0.48020   0.07560  Uani   1.00
N1113  N     0.03314   0.24600   0.42627   0.03357  Uani   1.00
N1114  N     0.22221   0.00163   0.44915   0.03837  Uani   1.00
C1115  C     0.05699   0.24380   0.41965   0.04437  Uani   1.00
C1116  C     0.19823   0.00253   0.45608   0.05277  Uani   1.00
C1117  C     0.14057   0.00565   0.45723   0.06813  Uani   1.00
C1118  C     0.11472   0.00528   0.45730   0.07560  Uani   1.00
N1119  N     0.21686   0.00400   0.30127   0.03357  Uani   1.00
N1120  N     0.02778   0.24837   0.32415   0.03837  Uani   1.00
C1121  C     0.19301   0.00620   0.29465   0.04437  Uani   1.00
C1122  C     0.05177   0.24747   0.33108   0.05277  Uani   1.00
C1123  C     0.10943   0.24435   0.33223   0.06813  Uani   1.00
C1124  C     0.13528   0.24472   0.33230   0.07560  Uani   1.00
N1125  N     0.24600   0.21686   0.36377   0.03357  Uani   1.00
N1126  N     0.00163   0.02779   0.38665   0.03837  Uani   1.00
C1127  C     0.24380   0.19301   0.35715   0.04437  Uani   1.00
C1128  C     0.00253   0.05178   0.39358   0.05277  Uani   1.00
C1129  C     0.00565   0.10943   0.39473   0.06813  Uani   1.00
C1130  C     0.00528   0.13528   0.39480   0.07560  Uani   1.00
N1131  N     0.00400   0.03314   0.48877   0.03357  Uani   1.00
N1132  N     0.24837   0.22221   0.26165   0.03837  Uani   1.00
C1133  C     0.00620   0.05699   0.48215   0.04437  Uani   1.00
C1134  C     0.24748   0.19823   0.26857   0.05277  Uani   1.00
C1135  C     0.24435   0.14058   0.26973   0.06813  Uani   1.00
C1136  C     0.24473   0.11472   0.26980   0.07560  Uani   1.00
Co1137 Co    0.24721   0.24721   0.34375   0.02543  Uani   1.00
Co1138 Co    0.00279   0.00279   0.46875   0.02543  Uani   1.00
Co1139 Co    0.00279   0.24721   0.40625   0.02543  Uani   1.00
Co1140 Co    0.24721   0.00279   0.28125   0.02543  Uani   1.00
C1141  C     0.06790   0.00000   0.31250   0.04747  Uani   1.00
C1142  C     0.17678   0.00000   0.31250   0.04137  Uani   1.00
C1143  C     0.14888   0.00000   0.31250   0.05083  Uani   1.00
C1144  C     0.09598   0.00000   0.31250   0.05433  Uani   1.00
C1145  C     0.18210   0.00000   0.43750   0.04747  Uani   1.00
C1146  C     0.07322   0.00000   0.43750   0.04137  Uani   1.00
C1147  C     0.10112   0.00000   0.43750   0.05083  Uani   1.00
C1148  C     0.15402   0.00000   0.43750   0.05433  Uani   1.00
C1149  C     0.00000   0.06790   0.37500   0.04747  Uani   1.00
C1150  C     0.00000   0.17678   0.37500   0.04137  Uani   1.00
C1151  C     0.00000   0.14888   0.37500   0.05083  Uani   1.00
C1152  C     0.00000   0.09598   0.37500   0.05433  Uani   1.00
C1153  C     0.00000   0.18210   0.25000   0.04747  Uani   1.00
C1154  C     0.00000   0.07322   0.25000   0.04137  Uani   1.00
C1155  C     0.00000   0.10112   0.25000   0.05083  Uani   1.00
C1156  C     0.00000   0.15402   0.25000   0.05433  Uani   1.00
N1157  N     0.46686   0.24600   0.32373   0.03357  Uani   1.00
N1158  N     0.27778   0.00163   0.30085   0.03837  Uani   1.00
C1159  C     0.44301   0.24380   0.33035   0.04437  Uani   1.00
C1160  C     0.30177   0.00253   0.29393   0.05277  Uani   1.00
C1161  C     0.35943   0.00565   0.29278   0.06813  Uani   1.00
C1162  C     0.38528   0.00528   0.29270   0.07560  Uani   1.00
N1163  N     0.28314   0.00400   0.44873   0.03357  Uani   1.00
N1164  N     0.47222   0.24837   0.42585   0.03837  Uani   1.00
C1165  C     0.30699   0.00620   0.45535   0.04437  Uani   1.00
C1166  C     0.44822   0.24747   0.41893   0.05277  Uani   1.00
C1167  C     0.39057   0.24435   0.41778   0.06813  Uani   1.00
C1168  C     0.36472   0.24472   0.41770   0.07560  Uani   1.00
N1169  N     0.25400   0.21686   0.38623   0.03357  Uani   1.00
N1170  N     0.49838   0.02779   0.36335   0.03837  Uani   1.00
C1171  C     0.25620   0.19301   0.39285   0.04437  Uani   1.00
C1172  C     0.49748   0.05178   0.35643   0.05277  Uani   1.00
C1173  C     0.49435   0.10943   0.35528   0.06813  Uani   1.00
C1174  C     0.49473   0.13528   0.35520   0.07560  Uani   1.00
N1175  N     0.49600   0.03314   0.26123   0.03357  Uani   1.00
N1176  N     0.25163   0.22221   0.48835   0.03837  Uani   1.00
C1177  C     0.49380   0.05699   0.26785   0.04437  Uani   1.00
C1178  C     0.25253   0.19823   0.48143   0.05277  Uani   1.00
C1179  C     0.25565   0.14058   0.48028   0.06813  Uani   1.00
C1180  C     0.25528   0.11472   0.48020   0.07560  Uani   1.00
N1181  N     0.28314   0.24600   0.42627   0.03357  Uani   1.00
N1182  N     0.47222   0.00163   0.44915   0.03837  Uani   1.00
C1183  C     0.30699   0.24380   0.41965   0.04437  Uani   1.00
C1184  C     0.44822   0.00253   0.45608   0.05277  Uani   1.00
C1185  C     0.39057   0.00565   0.45723   0.06813  Uani   1.00
C1186  C     0.36472   0.00528   0.45730   0.07560  Uani   1.00
N1187  N     0.46686   0.00400   0.30127   0.03357  Uani   1.00
N1188  N     0.27778   0.24837   0.32415   0.03837  Uani   1.00
C1189  C     0.44301   0.00620   0.29465   0.04437  Uani   1.00
C1190  C     0.30177   0.24747   0.33108   0.05277  Uani   1.00
C1191  C     0.35943   0.24435   0.33223   0.06813  Uani   1.00
C1192  C     0.38528   0.24472   0.33230   0.07560  Uani   1.00
N1193  N     0.49600   0.21686   0.36377   0.03357  Uani   1.00
N1194  N     0.25163   0.02779   0.38665   0.03837  Uani   1.00
C1195  C     0.49380   0.19301   0.35715   0.04437  Uani   1.00
C1196  C     0.25253   0.05178   0.39358   0.05277  Uani   1.00
C1197  C     0.25565   0.10943   0.39473   0.06813  Uani   1.00
C1198  C     0.25528   0.13528   0.39480   0.07560  Uani   1.00
N1199  N     0.25400   0.03314   0.48877   0.03357  Uani   1.00
N1200  N     0.49838   0.22221   0.26165   0.03837  Uani   1.00
C1201  C     0.25620   0.05699   0.48215   0.04437  Uani   1.00
C1202  C     0.49748   0.19823   0.26857   0.05277  Uani   1.00
C1203  C     0.49435   0.14058   0.26973   0.06813  Uani   1.00
C1204  C     0.49473   0.11472   0.26980   0.07560  Uani   1.00
Co1205 Co    0.49721   0.24721   0.34375   0.02543  Uani   1.00
Co1206 Co    0.25279   0.00279   0.46875   0.02543  Uani   1.00
Co1207 Co    0.25279   0.24721   0.40625   0.02543  Uani   1.00
Co1208 Co    0.49721   0.00279   0.28125   0.02543  Uani   1.00
C1209  C     0.31790   0.00000   0.31250   0.04747  Uani   1.00
C1210  C     0.42678   0.00000   0.31250   0.04137  Uani   1.00
C1211  C     0.39888   0.00000   0.31250   0.05083  Uani   1.00
C1212  C     0.34598   0.00000   0.31250   0.05433  Uani   1.00
C1213  C     0.43210   0.00000   0.43750   0.04747  Uani   1.00
C1214  C     0.32322   0.00000   0.43750   0.04137  Uani   1.00
C1215  C     0.35112   0.00000   0.43750   0.05083  Uani   1.00
C1216  C     0.40403   0.00000   0.43750   0.05433  Uani   1.00
C1217  C     0.25000   0.06790   0.37500   0.04747  Uani   1.00
C1218  C     0.25000   0.17678   0.37500   0.04137  Uani   1.00
C1219  C     0.25000   0.14888   0.37500   0.05083  Uani   1.00
C1220  C     0.25000   0.09598   0.37500   0.05433  Uani   1.00
C1221  C     0.25000   0.18210   0.25000   0.04747  Uani   1.00
C1222  C     0.25000   0.07322   0.25000   0.04137  Uani   1.00
C1223  C     0.25000   0.10112   0.25000   0.05083  Uani   1.00
C1224  C     0.25000   0.15402   0.25000   0.05433  Uani   1.00
N1225  N     0.71686   0.24600   0.32373   0.03357  Uani   1.00
N1226  N     0.52779   0.00163   0.30085   0.03837  Uani   1.00
C1227  C     0.69301   0.24380   0.33035   0.04437  Uani   1.00
C1228  C     0.55178   0.00253   0.29393   0.05277  Uani   1.00
C1229  C     0.60943   0.00565   0.29278   0.06813  Uani   1.00
C1230  C     0.63528   0.00528   0.29270   0.07560  Uani   1.00
N1231  N     0.53314   0.00400   0.44873   0.03357  Uani   1.00
N1232  N     0.72222   0.24837   0.42585   0.03837  Uani   1.00
C1233  C     0.55699   0.00620   0.45535   0.04437  Uani   1.00
C1234  C     0.69823   0.24747   0.41893   0.05277  Uani   1.00
C1235  C     0.64058   0.24435   0.41778   0.06813  Uani   1.00
C1236  C     0.61473   0.24472   0.41770   0.07560  Uani   1.00
N1237  N     0.50400   0.21686   0.38623   0.03357  Uani   1.00
N1238  N     0.74837   0.02779   0.36335   0.03837  Uani   1.00
C1239  C     0.50620   0.19301   0.39285   0.04437  Uani   1.00
C1240  C     0.74748   0.05178   0.35643   0.05277  Uani   1.00
C1241  C     0.74435   0.10943   0.35528   0.06813  Uani   1.00
C1242  C     0.74473   0.13528   0.35520   0.07560  Uani   1.00
N1243  N     0.74600   0.03314   0.26123   0.03357  Uani   1.00
N1244  N     0.50163   0.22221   0.48835   0.03837  Uani   1.00
C1245  C     0.74380   0.05699   0.26785   0.04437  Uani   1.00
C1246  C     0.50253   0.19823   0.48143   0.05277  Uani   1.00
C1247  C     0.50565   0.14058   0.48028   0.06813  Uani   1.00
C1248  C     0.50528   0.11472   0.48020   0.07560  Uani   1.00
N1249  N     0.53314   0.24600   0.42627   0.03357  Uani   1.00
N1250  N     0.72222   0.00163   0.44915   0.03837  Uani   1.00
C1251  C     0.55699   0.24380   0.41965   0.04437  Uani   1.00
C1252  C     0.69823   0.00253   0.45608   0.05277  Uani   1.00
C1253  C     0.64058   0.00565   0.45723   0.06813  Uani   1.00
C1254  C     0.61473   0.00528   0.45730   0.07560  Uani   1.00
N1255  N     0.71686   0.00400   0.30127   0.03357  Uani   1.00
N1256  N     0.52779   0.24837   0.32415   0.03837  Uani   1.00
C1257  C     0.69301   0.00620   0.29465   0.04437  Uani   1.00
C1258  C     0.55178   0.24747   0.33108   0.05277  Uani   1.00
C1259  C     0.60943   0.24435   0.33223   0.06813  Uani   1.00
C1260  C     0.63528   0.24472   0.33230   0.07560  Uani   1.00
N1261  N     0.74600   0.21686   0.36377   0.03357  Uani   1.00
N1262  N     0.50163   0.02779   0.38665   0.03837  Uani   1.00
C1263  C     0.74380   0.19301   0.35715   0.04437  Uani   1.00
C1264  C     0.50253   0.05178   0.39358   0.05277  Uani   1.00
C1265  C     0.50565   0.10943   0.39473   0.06813  Uani   1.00
C1266  C     0.50528   0.13528   0.39480   0.07560  Uani   1.00
N1267  N     0.50400   0.03314   0.48877   0.03357  Uani   1.00
N1268  N     0.74837   0.22221   0.26165   0.03837  Uani   1.00
C1269  C     0.50620   0.05699   0.48215   0.04437  Uani   1.00
C1270  C     0.74748   0.19823   0.26857   0.05277  Uani   1.00
C1271  C     0.74435   0.14058   0.26973   0.06813  Uani   1.00
C1272  C     0.74473   0.11472   0.26980   0.07560  Uani   1.00
Co1273 Co    0.74721   0.24721   0.34375   0.02543  Uani   1.00
Co1274 Co    0.50279   0.00279   0.46875   0.02543  Uani   1.00
Co1275 Co    0.50279   0.24721   0.40625   0.02543  Uani   1.00
Co1276 Co    0.74721   0.00279   0.28125   0.02543  Uani   1.00
C1277  C     0.56790   0.00000   0.31250   0.04747  Uani   1.00
C1278  C     0.67678   0.00000   0.31250   0.04137  Uani   1.00
C1279  C     0.64888   0.00000   0.31250   0.05083  Uani   1.00
C1280  C     0.59598   0.00000   0.31250   0.05433  Uani   1.00
C1281  C     0.68210   0.00000   0.43750   0.04747  Uani   1.00
C1282  C     0.57322   0.00000   0.43750   0.04137  Uani   1.00
C1283  C     0.60112   0.00000   0.43750   0.05083  Uani   1.00
C1284  C     0.65402   0.00000   0.43750   0.05433  Uani   1.00
C1285  C     0.50000   0.06790   0.37500   0.04747  Uani   1.00
C1286  C     0.50000   0.17678   0.37500   0.04137  Uani   1.00
C1287  C     0.50000   0.14888   0.37500   0.05083  Uani   1.00
C1288  C     0.50000   0.09598   0.37500   0.05433  Uani   1.00
C1289  C     0.50000   0.18210   0.25000   0.04747  Uani   1.00
C1290  C     0.50000   0.07322   0.25000   0.04137  Uani   1.00
C1291  C     0.50000   0.10112   0.25000   0.05083  Uani   1.00
C1292  C     0.50000   0.15402   0.25000   0.05433  Uani   1.00
N1293  N     0.96686   0.24600   0.32373   0.03357  Uani   1.00
N1294  N     0.77779   0.00163   0.30085   0.03837  Uani   1.00
C1295  C     0.94301   0.24380   0.33035   0.04437  Uani   1.00
C1296  C     0.80178   0.00253   0.29393   0.05277  Uani   1.00
C1297  C     0.85943   0.00565   0.29278   0.06813  Uani   1.00
C1298  C     0.88528   0.00528   0.29270   0.07560  Uani   1.00
N1299  N     0.78314   0.00400   0.44873   0.03357  Uani   1.00
N1300  N     0.97222   0.24837   0.42585   0.03837  Uani   1.00
C1301  C     0.80699   0.00620   0.45535   0.04437  Uani   1.00
C1302  C     0.94823   0.24747   0.41893   0.05277  Uani   1.00
C1303  C     0.89058   0.24435   0.41778   0.06813  Uani   1.00
C1304  C     0.86472   0.24472   0.41770   0.07560  Uani   1.00
N1305  N     0.75400   0.21686   0.38623   0.03357  Uani   1.00
N1306  N     0.99838   0.02779   0.36335   0.03837  Uani   1.00
C1307  C     0.75620   0.19301   0.39285   0.04437  Uani   1.00
C1308  C     0.99748   0.05178   0.35643   0.05277  Uani   1.00
C1309  C     0.99435   0.10943   0.35528   0.06813  Uani   1.00
C1310  C     0.99473   0.13528   0.35520   0.07560  Uani   1.00
N1311  N     0.99600   0.03314   0.26123   0.03357  Uani   1.00
N1312  N     0.75163   0.22221   0.48835   0.03837  Uani   1.00
C1313  C     0.99380   0.05699   0.26785   0.04437  Uani   1.00
C1314  C     0.75253   0.19823   0.48143   0.05277  Uani   1.00
C1315  C     0.75565   0.14058   0.48028   0.06813  Uani   1.00
C1316  C     0.75528   0.11472   0.48020   0.07560  Uani   1.00
N1317  N     0.78314   0.24600   0.42627   0.03357  Uani   1.00
N1318  N     0.97222   0.00163   0.44915   0.03837  Uani   1.00
C1319  C     0.80699   0.24380   0.41965   0.04437  Uani   1.00
C1320  C     0.94823   0.00253   0.45608   0.05277  Uani   1.00
C1321  C     0.89058   0.00565   0.45723   0.06813  Uani   1.00
C1322  C     0.86472   0.00528   0.45730   0.07560  Uani   1.00
N1323  N     0.96686   0.00400   0.30127   0.03357  Uani   1.00
N1324  N     0.77779   0.24837   0.32415   0.03837  Uani   1.00
C1325  C     0.94301   0.00620   0.29465   0.04437  Uani   1.00
C1326  C     0.80178   0.24747   0.33108   0.05277  Uani   1.00
C1327  C     0.85943   0.24435   0.33223   0.06813  Uani   1.00
C1328  C     0.88528   0.24472   0.33230   0.07560  Uani   1.00
N1329  N     0.99600   0.21686   0.36377   0.03357  Uani   1.00
N1330  N     0.75163   0.02779   0.38665   0.03837  Uani   1.00
C1331  C     0.99380   0.19301   0.35715   0.04437  Uani   1.00
C1332  C     0.75253   0.05178   0.39358   0.05277  Uani   1.00
C1333  C     0.75565   0.10943   0.39473   0.06813  Uani   1.00
C1334  C     0.75528   0.13528   0.39480   0.07560  Uani   1.00
N1335  N     0.75400   0.03314   0.48877   0.03357  Uani   1.00
N1336  N     0.99838   0.22221   0.26165   0.03837  Uani   1.00
C1337  C     0.75620   0.05699   0.48215   0.04437  Uani   1.00
C1338  C     0.99748   0.19823   0.26857   0.05277  Uani   1.00
C1339  C     0.99435   0.14058   0.26973   0.06813  Uani   1.00
C1340  C     0.99473   0.11472   0.26980   0.07560  Uani   1.00
Co1341 Co    0.99721   0.24721   0.34375   0.02543  Uani   1.00
Co1342 Co    0.75279   0.00279   0.46875   0.02543  Uani   1.00
Co1343 Co    0.75279   0.24721   0.40625   0.02543  Uani   1.00
Co1344 Co    0.99721   0.00279   0.28125   0.02543  Uani   1.00
C1345  C     0.81790   0.00000   0.31250   0.04747  Uani   1.00
C1346  C     0.92678   0.00000   0.31250   0.04137  Uani   1.00
C1347  C     0.89888   0.00000   0.31250   0.05083  Uani   1.00
C1348  C     0.84598   0.00000   0.31250   0.05433  Uani   1.00
C1349  C     0.93210   0.00000   0.43750   0.04747  Uani   1.00
C1350  C     0.82322   0.00000   0.43750   0.04137  Uani   1.00
C1351  C     0.85113   0.00000   0.43750   0.05083  Uani   1.00
C1352  C     0.90403   0.00000   0.43750   0.05433  Uani   1.00
C1353  C     0.75000   0.06790   0.37500   0.04747  Uani   1.00
C1354  C     0.75000   0.17678   0.37500   0.04137  Uani   1.00
C1355  C     0.75000   0.14888   0.37500   0.05083  Uani   1.00
C1356  C     0.75000   0.09598   0.37500   0.05433  Uani   1.00
C1357  C     0.75000   0.18210   0.25000   0.04747  Uani   1.00
C1358  C     0.75000   0.07322   0.25000   0.04137  Uani   1.00
C1359  C     0.75000   0.10112   0.25000   0.05083  Uani   1.00
C1360  C     0.75000   0.15402   0.25000   0.05433  Uani   1.00
N1361  N     0.21686   0.49600   0.32373   0.03357  Uani   1.00
N1362  N     0.02778   0.25163   0.30085   0.03837  Uani   1.00
C1363  C     0.19301   0.49380   0.33035   0.04437  Uani   1.00
C1364  C     0.05177   0.25253   0.29393   0.05277  Uani   1.00
C1365  C     0.10943   0.25565   0.29278   0.06813  Uani   1.00
C1366  C     0.13528   0.25528   0.29270   0.07560  Uani   1.00
N1367  N     0.03314   0.25400   0.44873   0.03357  Uani   1.00
N1368  N     0.22221   0.49837   0.42585   0.03837  Uani   1.00
C1369  C     0.05699   0.25620   0.45535   0.04437  Uani   1.00
C1370  C     0.19823   0.49747   0.41893   0.05277  Uani   1.00
C1371  C     0.14057   0.49435   0.41778   0.06813  Uani   1.00
C1372  C     0.11472   0.49472   0.41770   0.07560  Uani   1.00
N1373  N     0.00400   0.46686   0.38623   0.03357  Uani   1.00
N1374  N     0.24837   0.27779   0.36335   0.03837  Uani   1.00
C1375  C     0.00620   0.44301   0.39285   0.04437  Uani   1.00
C1376  C     0.24748   0.30178   0.35643   0.05277  Uani   1.00
C1377  C     0.24435   0.35943   0.35528   0.06813  Uani   1.00
C1378  C     0.24473   0.38528   0.35520   0.07560  Uani   1.00
N1379  N     0.24600   0.28314   0.26123   0.03357  Uani   1.00
N1380  N     0.00163   0.47221   0.48835   0.03837  Uani   1.00
C1381  C     0.24380   0.30699   0.26785   0.04437  Uani   1.00
C1382  C     0.00253   0.44823   0.48143   0.05277  Uani   1.00
C1383  C     0.00565   0.39058   0.48028   0.06813  Uani   1.00
C1384  C     0.00528   0.36472   0.48020   0.07560  Uani   1.00
N1385  N     0.03314   0.49600   0.42627   0.03357  Uani   1.00
N1386  N     0.22221   0.25163   0.44915   0.03837  Uani   1.00
C1387  C     0.05699   0.49380   0.41965   0.04437  Uani   1.00
C1388  C     0.19823   0.25253   0.45608   0.05277  Uani   1.00
C1389  C     0.14057   0.25565   0.45723   0.06813  Uani   1.00
C1390  C     0.11472   0.25528   0.45730   0.07560  Uani   1.00
N1391  N     0.21686   0.25400   0.30127   0.03357  Uani   1.00
N1392  N     0.02778   0.49837   0.32415   0.03837  Uani   1.00
C1393  C     0.19301   0.25620   0.29465   0.04437  Uani   1.00
C1394  C     0.05177   0.49747   0.33108   0.05277  Uani   1.00
C1395  C     0.10943   0.49435   0.33223   0.06813  Uani   1.00
C1396  C     0.13528   0.49472   0.33230   0.07560  Uani   1.00
N1397  N     0.24600   0.46686   0.36377   0.03357  Uani   1.00
N1398  N     0.00163   0.27779   0.38665   0.03837  Uani   1.00
C1399  C     0.24380   0.44301   0.35715   0.04437  Uani   1.00
C1400  C     0.00253   0.30178   0.39358   0.05277  Uani   1.00
C1401  C     0.00565   0.35943   0.39473   0.06813  Uani   1.00
C1402  C     0.00528   0.38528   0.39480   0.07560  Uani   1.00
N1403  N     0.00400   0.28314   0.48877   0.03357  Uani   1.00
N1404  N     0.24837   0.47221   0.26165   0.03837  Uani   1.00
C1405  C     0.00620   0.30699   0.48215   0.04437  Uani   1.00
C1406  C     0.24748   0.44823   0.26857   0.05277  Uani   1.00
C1407  C     0.24435   0.39058   0.26973   0.06813  Uani   1.00
C1408  C     0.24473   0.36472   0.26980   0.07560  Uani   1.00
Co1409 Co    0.24721   0.49721   0.34375   0.02543  Uani   1.00
Co1410 Co    0.00279   0.25279   0.46875   0.02543  Uani   1.00
Co1411 Co    0.00279   0.49721   0.40625   0.02543  Uani   1.00
Co1412 Co    0.24721   0.25279   0.28125   0.02543  Uani   1.00
C1413  C     0.06790   0.25000   0.31250   0.04747  Uani   1.00
C1414  C     0.17678   0.25000   0.31250   0.04137  Uani   1.00
C1415  C     0.14888   0.25000   0.31250   0.05083  Uani   1.00
C1416  C     0.09598   0.25000   0.31250   0.05433  Uani   1.00
C1417  C     0.18210   0.25000   0.43750   0.04747  Uani   1.00
C1418  C     0.07322   0.25000   0.43750   0.04137  Uani   1.00
C1419  C     0.10112   0.25000   0.43750   0.05083  Uani   1.00
C1420  C     0.15402   0.25000   0.43750   0.05433  Uani   1.00
C1421  C     0.00000   0.31790   0.37500   0.04747  Uani   1.00
C1422  C     0.00000   0.42678   0.37500   0.04137  Uani   1.00
C1423  C     0.00000   0.39888   0.37500   0.05083  Uani   1.00
C1424  C     0.00000   0.34598   0.37500   0.05433  Uani   1.00
C1425  C     0.00000   0.43210   0.25000   0.04747  Uani   1.00
C1426  C     0.00000   0.32322   0.25000   0.04137  Uani   1.00
C1427  C     0.00000   0.35112   0.25000   0.05083  Uani   1.00
C1428  C     0.00000   0.40402   0.25000   0.05433  Uani   1.00
N1429  N     0.46686   0.49600   0.32373   0.03357  Uani   1.00
N1430  N     0.27778   0.25163   0.30085   0.03837  Uani   1.00
C1431  C     0.44301   0.49380   0.33035   0.04437  Uani   1.00
C1432  C     0.30177   0.25253   0.29393   0.05277  Uani   1.00
C1433  C     0.35943   0.25565   0.29278   0.06813  Uani   1.00
C1434  C     0.38528   0.25528   0.29270   0.07560  Uani   1.00
N1435  N     0.28314   0.25400   0.44873   0.03357  Uani   1.00
N1436  N     0.47222   0.49837   0.42585   0.03837  Uani   1.00
C1437  C     0.30699   0.25620   0.45535   0.04437  Uani   1.00
C1438  C     0.44822   0.49747   0.41893   0.05277  Uani   1.00
C1439  C     0.39057   0.49435   0.41778   0.06813  Uani   1.00
C1440  C     0.36472   0.49472   0.41770   0.07560  Uani   1.00
N1441  N     0.25400   0.46686   0.38623   0.03357  Uani   1.00
N1442  N     0.49838   0.27779   0.36335   0.03837  Uani   1.00
C1443  C     0.25620   0.44301   0.39285   0.04437  Uani   1.00
C1444  C     0.49748   0.30178   0.35643   0.05277  Uani   1.00
C1445  C     0.49435   0.35943   0.35528   0.06813  Uani   1.00
C1446  C     0.49473   0.38528   0.35520   0.07560  Uani   1.00
N1447  N     0.49600   0.28314   0.26123   0.03357  Uani   1.00
N1448  N     0.25163   0.47221   0.48835   0.03837  Uani   1.00
C1449  C     0.49380   0.30699   0.26785   0.04437  Uani   1.00
C1450  C     0.25253   0.44823   0.48143   0.05277  Uani   1.00
C1451  C     0.25565   0.39058   0.48028   0.06813  Uani   1.00
C1452  C     0.25528   0.36472   0.48020   0.07560  Uani   1.00
N1453  N     0.28314   0.49600   0.42627   0.03357  Uani   1.00
N1454  N     0.47222   0.25163   0.44915   0.03837  Uani   1.00
C1455  C     0.30699   0.49380   0.41965   0.04437  Uani   1.00
C1456  C     0.44822   0.25253   0.45608   0.05277  Uani   1.00
C1457  C     0.39057   0.25565   0.45723   0.06813  Uani   1.00
C1458  C     0.36472   0.25528   0.45730   0.07560  Uani   1.00
N1459  N     0.46686   0.25400   0.30127   0.03357  Uani   1.00
N1460  N     0.27778   0.49837   0.32415   0.03837  Uani   1.00
C1461  C     0.44301   0.25620   0.29465   0.04437  Uani   1.00
C1462  C     0.30177   0.49747   0.33108   0.05277  Uani   1.00
C1463  C     0.35943   0.49435   0.33223   0.06813  Uani   1.00
C1464  C     0.38528   0.49472   0.33230   0.07560  Uani   1.00
N1465  N     0.49600   0.46686   0.36377   0.03357  Uani   1.00
N1466  N     0.25163   0.27779   0.38665   0.03837  Uani   1.00
C1467  C     0.49380   0.44301   0.35715   0.04437  Uani   1.00
C1468  C     0.25253   0.30178   0.39358   0.05277  Uani   1.00
C1469  C     0.25565   0.35943   0.39473   0.06813  Uani   1.00
C1470  C     0.25528   0.38528   0.39480   0.07560  Uani   1.00
N1471  N     0.25400   0.28314   0.48877   0.03357  Uani   1.00
N1472  N     0.49838   0.47221   0.26165   0.03837  Uani   1.00
C1473  C     0.25620   0.30699   0.48215   0.04437  Uani   1.00
C1474  C     0.49748   0.44823   0.26857   0.05277  Uani   1.00
C1475  C     0.49435   0.39058   0.26973   0.06813  Uani   1.00
C1476  C     0.49473   0.36472   0.26980   0.07560  Uani   1.00
Co1477 Co    0.49721   0.49721   0.34375   0.02543  Uani   1.00
Co1478 Co    0.25279   0.25279   0.46875   0.02543  Uani   1.00
Co1479 Co    0.25279   0.49721   0.40625   0.02543  Uani   1.00
Co1480 Co    0.49721   0.25279   0.28125   0.02543  Uani   1.00
C1481  C     0.31790   0.25000   0.31250   0.04747  Uani   1.00
C1482  C     0.42678   0.25000   0.31250   0.04137  Uani   1.00
C1483  C     0.39888   0.25000   0.31250   0.05083  Uani   1.00
C1484  C     0.34598   0.25000   0.31250   0.05433  Uani   1.00
C1485  C     0.43210   0.25000   0.43750   0.04747  Uani   1.00
C1486  C     0.32322   0.25000   0.43750   0.04137  Uani   1.00
C1487  C     0.35112   0.25000   0.43750   0.05083  Uani   1.00
C1488  C     0.40403   0.25000   0.43750   0.05433  Uani   1.00
C1489  C     0.25000   0.31790   0.37500   0.04747  Uani   1.00
C1490  C     0.25000   0.42678   0.37500   0.04137  Uani   1.00
C1491  C     0.25000   0.39888   0.37500   0.05083  Uani   1.00
C1492  C     0.25000   0.34598   0.37500   0.05433  Uani   1.00
C1493  C     0.25000   0.43210   0.25000   0.04747  Uani   1.00
C1494  C     0.25000   0.32322   0.25000   0.04137  Uani   1.00
C1495  C     0.25000   0.35112   0.25000   0.05083  Uani   1.00
C1496  C     0.25000   0.40402   0.25000   0.05433  Uani   1.00
N1497  N     0.71686   0.49600   0.32373   0.03357  Uani   1.00
N1498  N     0.52779   0.25163   0.30085   0.03837  Uani   1.00
C1499  C     0.69301   0.49380   0.33035   0.04437  Uani   1.00
C1500  C     0.55178   0.25253   0.29393   0.05277  Uani   1.00
C1501  C     0.60943   0.25565   0.29278   0.06813  Uani   1.00
C1502  C     0.63528   0.25528   0.29270   0.07560  Uani   1.00
N1503  N     0.53314   0.25400   0.44873   0.03357  Uani   1.00
N1504  N     0.72222   0.49837   0.42585   0.03837  Uani   1.00
C1505  C     0.55699   0.25620   0.45535   0.04437  Uani   1.00
C1506  C     0.69823   0.49747   0.41893   0.05277  Uani   1.00
C1507  C     0.64058   0.49435   0.41778   0.06813  Uani   1.00
C1508  C     0.61473   0.49472   0.41770   0.07560  Uani   1.00
N1509  N     0.50400   0.46686   0.38623   0.03357  Uani   1.00
N1510  N     0.74837   0.27779   0.36335   0.03837  Uani   1.00
C1511  C     0.50620   0.44301   0.39285   0.04437  Uani   1.00
C1512  C     0.74748   0.30178   0.35643   0.05277  Uani   1.00
C1513  C     0.74435   0.35943   0.35528   0.06813  Uani   1.00
C1514  C     0.74473   0.38528   0.35520   0.07560  Uani   1.00
N1515  N     0.74600   0.28314   0.26123   0.03357  Uani   1.00
N1516  N     0.50163   0.47221   0.48835   0.03837  Uani   1.00
C1517  C     0.74380   0.30699   0.26785   0.04437  Uani   1.00
C1518  C     0.50253   0.44823   0.48143   0.05277  Uani   1.00
C1519  C     0.50565   0.39058   0.48028   0.06813  Uani   1.00
C1520  C     0.50528   0.36472   0.48020   0.07560  Uani   1.00
N1521  N     0.53314   0.49600   0.42627   0.03357  Uani   1.00
N1522  N     0.72222   0.25163   0.44915   0.03837  Uani   1.00
C1523  C     0.55699   0.49380   0.41965   0.04437  Uani   1.00
C1524  C     0.69823   0.25253   0.45608   0.05277  Uani   1.00
C1525  C     0.64058   0.25565   0.45723   0.06813  Uani   1.00
C1526  C     0.61473   0.25528   0.45730   0.07560  Uani   1.00
N1527  N     0.71686   0.25400   0.30127   0.03357  Uani   1.00
N1528  N     0.52779   0.49837   0.32415   0.03837  Uani   1.00
C1529  C     0.69301   0.25620   0.29465   0.04437  Uani   1.00
C1530  C     0.55178   0.49747   0.33108   0.05277  Uani   1.00
C1531  C     0.60943   0.49435   0.33223   0.06813  Uani   1.00
C1532  C     0.63528   0.49472   0.33230   0.07560  Uani   1.00
N1533  N     0.74600   0.46686   0.36377   0.03357  Uani   1.00
N1534  N     0.50163   0.27779   0.38665   0.03837  Uani   1.00
C1535  C     0.74380   0.44301   0.35715   0.04437  Uani   1.00
C1536  C     0.50253   0.30178   0.39358   0.05277  Uani   1.00
C1537  C     0.50565   0.35943   0.39473   0.06813  Uani   1.00
C1538  C     0.50528   0.38528   0.39480   0.07560  Uani   1.00
N1539  N     0.50400   0.28314   0.48877   0.03357  Uani   1.00
N1540  N     0.74837   0.47221   0.26165   0.03837  Uani   1.00
C1541  C     0.50620   0.30699   0.48215   0.04437  Uani   1.00
C1542  C     0.74748   0.44823   0.26857   0.05277  Uani   1.00
C1543  C     0.74435   0.39058   0.26973   0.06813  Uani   1.00
C1544  C     0.74473   0.36472   0.26980   0.07560  Uani   1.00
Co1545 Co    0.74721   0.49721   0.34375   0.02543  Uani   1.00
Co1546 Co    0.50279   0.25279   0.46875   0.02543  Uani   1.00
Co1547 Co    0.50279   0.49721   0.40625   0.02543  Uani   1.00
Co1548 Co    0.74721   0.25279   0.28125   0.02543  Uani   1.00
C1549  C     0.56790   0.25000   0.31250   0.04747  Uani   1.00
C1550  C     0.67678   0.25000   0.31250   0.04137  Uani   1.00
C1551  C     0.64888   0.25000   0.31250   0.05083  Uani   1.00
C1552  C     0.59598   0.25000   0.31250   0.05433  Uani   1.00
C1553  C     0.68210   0.25000   0.43750   0.04747  Uani   1.00
C1554  C     0.57322   0.25000   0.43750   0.04137  Uani   1.00
C1555  C     0.60112   0.25000   0.43750   0.05083  Uani   1.00
C1556  C     0.65402   0.25000   0.43750   0.05433  Uani   1.00
C1557  C     0.50000   0.31790   0.37500   0.04747  Uani   1.00
C1558  C     0.50000   0.42678   0.37500   0.04137  Uani   1.00
C1559  C     0.50000   0.39888   0.37500   0.05083  Uani   1.00
C1560  C     0.50000   0.34598   0.37500   0.05433  Uani   1.00
C1561  C     0.50000   0.43210   0.25000   0.04747  Uani   1.00
C1562  C     0.50000   0.32322   0.25000   0.04137  Uani   1.00
C1563  C     0.50000   0.35112   0.25000   0.05083  Uani   1.00
C1564  C     0.50000   0.40402   0.25000   0.05433  Uani   1.00
N1565  N     0.96686   0.49600   0.32373   0.03357  Uani   1.00
N1566  N     0.77779   0.25163   0.30085   0.03837  Uani   1.00
C1567  C     0.94301   0.49380   0.33035   0.04437  Uani   1.00
C1568  C     0.80178   0.25253   0.29393   0.05277  Uani   1.00
C1569  C     0.85943   0.25565   0.29278   0.06813  Uani   1.00
C1570  C     0.88528   0.25528   0.29270   0.07560  Uani   1.00
N1571  N     0.78314   0.25400   0.44873   0.03357  Uani   1.00
N1572  N     0.97222   0.49837   0.42585   0.03837  Uani   1.00
C1573  C     0.80699   0.25620   0.45535   0.04437  Uani   1.00
C1574  C     0.94823   0.49747   0.41893   0.05277  Uani   1.00
C1575  C     0.89058   0.49435   0.41778   0.06813  Uani   1.00
C1576  C     0.86472   0.49472   0.41770   0.07560  Uani   1.00
N1577  N     0.75400   0.46686   0.38623   0.03357  Uani   1.00
N1578  N     0.99838   0.27779   0.36335   0.03837  Uani   1.00
C1579  C     0.75620   0.44301   0.39285   0.04437  Uani   1.00
C1580  C     0.99748   0.30178   0.35643   0.05277  Uani   1.00
C1581  C     0.99435   0.35943   0.35528   0.06813  Uani   1.00
C1582  C     0.99473   0.38528   0.35520   0.07560  Uani   1.00
N1583  N     0.99600   0.28314   0.26123   0.03357  Uani   1.00
N1584  N     0.75163   0.47221   0.48835   0.03837  Uani   1.00
C1585  C     0.99380   0.30699   0.26785   0.04437  Uani   1.00
C1586  C     0.75253   0.44823   0.48143   0.05277  Uani   1.00
C1587  C     0.75565   0.39058   0.48028   0.06813  Uani   1.00
C1588  C     0.75528   0.36472   0.48020   0.07560  Uani   1.00
N1589  N     0.78314   0.49600   0.42627   0.03357  Uani   1.00
N1590  N     0.97222   0.25163   0.44915   0.03837  Uani   1.00
C1591  C     0.80699   0.49380   0.41965   0.04437  Uani   1.00
C1592  C     0.94823   0.25253   0.45608   0.05277  Uani   1.00
C1593  C     0.89058   0.25565   0.45723   0.06813  Uani   1.00
C1594  C     0.86472   0.25528   0.45730   0.07560  Uani   1.00
N1595  N     0.96686   0.25400   0.30127   0.03357  Uani   1.00
N1596  N     0.77779   0.49837   0.32415   0.03837  Uani   1.00
C1597  C     0.94301   0.25620   0.29465   0.04437  Uani   1.00
C1598  C     0.80178   0.49747   0.33108   0.05277  Uani   1.00
C1599  C     0.85943   0.49435   0.33223   0.06813  Uani   1.00
C1600  C     0.88528   0.49472   0.33230   0.07560  Uani   1.00
N1601  N     0.99600   0.46686   0.36377   0.03357  Uani   1.00
N1602  N     0.75163   0.27779   0.38665   0.03837  Uani   1.00
C1603  C     0.99380   0.44301   0.35715   0.04437  Uani   1.00
C1604  C     0.75253   0.30178   0.39358   0.05277  Uani   1.00
C1605  C     0.75565   0.35943   0.39473   0.06813  Uani   1.00
C1606  C     0.75528   0.38528   0.39480   0.07560  Uani   1.00
N1607  N     0.75400   0.28314   0.48877   0.03357  Uani   1.00
N1608  N     0.99838   0.47221   0.26165   0.03837  Uani   1.00
C1609  C     0.75620   0.30699   0.48215   0.04437  Uani   1.00
C1610  C     0.99748   0.44823   0.26857   0.05277  Uani   1.00
C1611  C     0.99435   0.39058   0.26973   0.06813  Uani   1.00
C1612  C     0.99473   0.36472   0.26980   0.07560  Uani   1.00
Co1613 Co    0.99721   0.49721   0.34375   0.02543  Uani   1.00
Co1614 Co    0.75279   0.25279   0.46875   0.02543  Uani   1.00
Co1615 Co    0.75279   0.49721   0.40625   0.02543  Uani   1.00
Co1616 Co    0.99721   0.25279   0.28125   0.02543  Uani   1.00
C1617  C     0.81790   0.25000   0.31250   0.04747  Uani   1.00
C1618  C     0.92678   0.25000   0.31250   0.04137  Uani   1.00
C1619  C     0.89888   0.25000   0.31250   0.05083  Uani   1.00
C1620  C     0.84598   0.25000   0.31250   0.05433  Uani   1.00
C1621  C     0.93210   0.25000   0.43750   0.04747  Uani   1.00
C1622  C     0.82322   0.25000   0.43750   0.04137  Uani   1.00
C1623  C     0.85113   0.25000   0.43750   0.05083  Uani   1.00
C1624  C     0.90403   0.25000   0.43750   0.05433  Uani   1.00
C1625  C     0.75000   0.31790   0.37500   0.04747  Uani   1.00
C1626  C     0.75000   0.42678   0.37500   0.04137  Uani   1.00
C1627  C     0.75000   0.39888   0.37500   0.05083  Uani   1.00
C1628  C     0.75000   0.34598   0.37500   0.05433  Uani   1.00
C1629  C     0.75000   0.43210   0.25000   0.04747  Uani   1.00
C1630  C     0.75000   0.32322   0.25000   0.04137  Uani   1.00
C1631  C     0.75000   0.35112   0.25000   0.05083  Uani   1.00
C1632  C     0.75000   0.40402   0.25000   0.05433  Uani   1.00
N1633  N     0.21686   0.74600   0.32373   0.03357  Uani   1.00
N1634  N     0.02778   0.50163   0.30085   0.03837  Uani   1.00
C1635  C     0.19301   0.74380   0.33035   0.04437  Uani   1.00
C1636  C     0.05177   0.50253   0.29393   0.05277  Uani   1.00
C1637  C     0.10943   0.50565   0.29278   0.06813  Uani   1.00
C1638  C     0.13528   0.50528   0.29270   0.07560  Uani   1.00
N1639  N     0.03314   0.50400   0.44873   0.03357  Uani   1.00
N1640  N     0.22221   0.74837   0.42585   0.03837  Uani   1.00
C1641  C     0.05699   0.50620   0.45535   0.04437  Uani   1.00
C1642  C     0.19823   0.74747   0.41893   0.05277  Uani   1.00
C1643  C     0.14057   0.74435   0.41778   0.06813  Uani   1.00
C1644  C     0.11472   0.74472   0.41770   0.07560  Uani   1.00
N1645  N     0.00400   0.71686   0.38623   0.03357  Uani   1.00
N1646  N     0.24837   0.52779   0.36335   0.03837  Uani   1.00
C1647  C     0.00620   0.69301   0.39285   0.04437  Uani   1.00
C1648  C     0.24748   0.55178   0.35643   0.05277  Uani   1.00
C1649  C     0.24435   0.60943   0.35528   0.06813  Uani   1.00
C1650  C     0.24473   0.63528   0.35520   0.07560  Uani   1.00
N1651  N     0.24600   0.53314   0.26123   0.03357  Uani   1.00
N1652  N     0.00163   0.72221   0.48835   0.03837  Uani   1.00
C1653  C     0.24380   0.55699   0.26785   0.04437  Uani   1.00
C1654  C     0.00253   0.69823   0.48143   0.05277  Uani   1.00
C1655  C     0.00565   0.64058   0.48028   0.06813  Uani   1.00
C1656  C     0.00528   0.61472   0.48020   0.07560  Uani   1.00
N1657  N     0.03314   0.74600   0.42627   0.03357  Uani   1.00
N1658  N     0.22221   0.50163   0.44915   0.03837  Uani   1.00
C1659  C     0.05699   0.74380   0.41965   0.04437  Uani   1.00
C1660  C     0.19823   0.50253   0.45608   0.05277  Uani   1.00
C1661  C     0.14057   0.50565   0.45723   0.06813  Uani   1.00
C1662  C     0.11472   0.50528   0.45730   0.07560  Uani   1.00
N1663  N     0.21686   0.50400   0.30127   0.03357  Uani   1.00
N1664  N     0.02778   0.74837   0.32415   0.03837  Uani   1.00
C1665  C     0.19301   0.50620   0.29465   0.04437  Uani   1.00
C1666  C     0.05177   0.74747   0.33108   0.05277  Uani   1.00
C1667  C     0.10943   0.74435   0.33223   0.06813  Uani   1.00
C1668  C     0.13528   0.74472   0.33230   0.07560  Uani   1.00
N1669  N     0.24600   0.71686   0.36377   0.03357  Uani   1.00
N1670  N     0.00163   0.52779   0.38665   0.03837  Uani   1.00
C1671  C     0.24380   0.69301   0.35715   0.04437  Uani   1.00
C1672  C     0.00253   0.55178   0.39358   0.05277  Uani   1.00
C1673  C     0.00565   0.60943   0.39473   0.06813  Uani   1.00
C1674  C     0.00528   0.63528   0.39480   0.07560  Uani   1.00
N1675  N     0.00400   0.53314   0.48877   0.03357  Uani   1.00
N1676  N     0.24837   0.72221   0.26165   0.03837  Uani   1.00
C1677  C     0.00620   0.55699   0.48215   0.04437  Uani   1.00
C1678  C     0.24748   0.69823   0.26857   0.05277  Uani   1.00
C1679  C     0.24435   0.64058   0.26973   0.06813  Uani   1.00
C1680  C     0.24473   0.61472   0.26980   0.07560  Uani   1.00
Co1681 Co    0.24721   0.74721   0.34375   0.02543  Uani   1.00
Co1682 Co    0.00279   0.50279   0.46875   0.02543  Uani   1.00
Co1683 Co    0.00279   0.74721   0.40625   0.02543  Uani   1.00
Co1684 Co    0.24721   0.50279   0.28125   0.02543  Uani   1.00
C1685  C     0.06790   0.50000   0.31250   0.04747  Uani   1.00
C1686  C     0.17678   0.50000   0.31250   0.04137  Uani   1.00
C1687  C     0.14888   0.50000   0.31250   0.05083  Uani   1.00
C1688  C     0.09598   0.50000   0.31250   0.05433  Uani   1.00
C1689  C     0.18210   0.50000   0.43750   0.04747  Uani   1.00
C1690  C     0.07322   0.50000   0.43750   0.04137  Uani   1.00
C1691  C     0.10112   0.50000   0.43750   0.05083  Uani   1.00
C1692  C     0.15402   0.50000   0.43750   0.05433  Uani   1.00
C1693  C     0.00000   0.56790   0.37500   0.04747  Uani   1.00
C1694  C     0.00000   0.67678   0.37500   0.04137  Uani   1.00
C1695  C     0.00000   0.64888   0.37500   0.05083  Uani   1.00
C1696  C     0.00000   0.59598   0.37500   0.05433  Uani   1.00
C1697  C     0.00000   0.68210   0.25000   0.04747  Uani   1.00
C1698  C     0.00000   0.57322   0.25000   0.04137  Uani   1.00
C1699  C     0.00000   0.60112   0.25000   0.05083  Uani   1.00
C1700  C     0.00000   0.65402   0.25000   0.05433  Uani   1.00
N1701  N     0.46686   0.74600   0.32373   0.03357  Uani   1.00
N1702  N     0.27778   0.50163   0.30085   0.03837  Uani   1.00
C1703  C     0.44301   0.74380   0.33035   0.04437  Uani   1.00
C1704  C     0.30177   0.50253   0.29393   0.05277  Uani   1.00
C1705  C     0.35943   0.50565   0.29278   0.06813  Uani   1.00
C1706  C     0.38528   0.50528   0.29270   0.07560  Uani   1.00
N1707  N     0.28314   0.50400   0.44873   0.03357  Uani   1.00
N1708  N     0.47222   0.74837   0.42585   0.03837  Uani   1.00
C1709  C     0.30699   0.50620   0.45535   0.04437  Uani   1.00
C1710  C     0.44822   0.74747   0.41893   0.05277  Uani   1.00
C1711  C     0.39057   0.74435   0.41778   0.06813  Uani   1.00
C1712  C     0.36472   0.74472   0.41770   0.07560  Uani   1.00
N1713  N     0.25400   0.71686   0.38623   0.03357  Uani   1.00
N1714  N     0.49838   0.52779   0.36335   0.03837  Uani   1.00
C1715  C     0.25620   0.69301   0.39285   0.04437  Uani   1.00
C1716  C     0.49748   0.55178   0.35643   0.05277  Uani   1.00
C1717  C     0.49435   0.60943   0.35528   0.06813  Uani   1.00
C1718  C     0.49473   0.63528   0.35520   0.07560  Uani   1.00
N1719  N     0.49600   0.53314   0.26123   0.03357  Uani   1.00
N1720  N     0.25163   0.72221   0.48835   0.03837  Uani   1.00
C1721  C     0.49380   0.55699   0.26785   0.04437  Uani   1.00
C1722  C     0.25253   0.69823   0.48143   0.05277  Uani   1.00
C1723  C     0.25565   0.64058   0.48028   0.06813  Uani   1.00
C1724  C     0.25528   0.61472   0.48020   0.07560  Uani   1.00
N1725  N     0.28314   0.74600   0.42627   0.03357  Uani   1.00
N1726  N     0.47222   0.50163   0.44915   0.03837  Uani   1.00
C1727  C     0.30699   0.74380   0.41965   0.04437  Uani   1.00
C1728  C     0.44822   0.50253   0.45608   0.05277  Uani   1.00
C1729  C     0.39057   0.50565   0.45723   0.06813  Uani   1.00
C1730  C     0.36472   0.50528   0.45730   0.07560  Uani   1.00
N1731  N     0.46686   0.50400   0.30127   0.03357  Uani   1.00
N1732  N     0.27778   0.74837   0.32415   0.03837  Uani   1.00
C1733  C     0.44301   0.50620   0.29465   0.04437  Uani   1.00
C1734  C     0.30177   0.74747   0.33108   0.05277  Uani   1.00
C1735  C     0.35943   0.74435   0.33223   0.06813  Uani   1.00
C1736  C     0.38528   0.74472   0.33230   0.07560  Uani   1.00
N1737  N     0.49600   0.71686   0.36377   0.03357  Uani   1.00
N1738  N     0.25163   0.52779   0.38665   0.03837  Uani   1.00
C1739  C     0.49380   0.69301   0.35715   0.04437  Uani   1.00
C1740  C     0.25253   0.55178   0.39358   0.05277  Uani   1.00
C1741  C     0.25565   0.60943   0.39473   0.06813  Uani   1.00
C1742  C     0.25528   0.63528   0.39480   0.07560  Uani   1.00
N1743  N     0.25400   0.53314   0.48877   0.03357  Uani   1.00
N1744  N     0.49838   0.72221   0.26165   0.03837  Uani   1.00
C1745  C     0.25620   0.55699   0.48215   0.04437  Uani   1.00
C1746  C     0.49748   0.69823   0.26857   0.05277  Uani   1.00
C1747  C     0.49435   0.64058   0.26973   0.06813  Uani   1.00
C1748  C     0.49473   0.61472   0.26980   0.07560  Uani   1.00
Co1749 Co    0.49721   0.74721   0.34375   0.02543  Uani   1.00
Co1750 Co    0.25279   0.50279   0.46875   0.02543  Uani   1.00
Co1751 Co    0.25279   0.74721   0.40625   0.02543  Uani   1.00
Co1752 Co    0.49721   0.50279   0.28125   0.02543  Uani   1.00
C1753  C     0.31790   0.50000   0.31250   0.04747  Uani   1.00
C1754  C     0.42678   0.50000   0.31250   0.04137  Uani   1.00
C1755  C     0.39888   0.50000   0.31250   0.05083  Uani   1.00
C1756  C     0.34598   0.50000   0.31250   0.05433  Uani   1.00
C1757  C     0.43210   0.50000   0.43750   0.04747  Uani   1.00
C1758  C     0.32322   0.50000   0.43750   0.04137  Uani   1.00
C1759  C     0.35112   0.50000   0.43750   0.05083  Uani   1.00
C1760  C     0.40403   0.50000   0.43750   0.05433  Uani   1.00
C1761  C     0.25000   0.56790   0.37500   0.04747  Uani   1.00
C1762  C     0.25000   0.67678   0.37500   0.04137  Uani   1.00
C1763  C     0.25000   0.64888   0.37500   0.05083  Uani   1.00
C1764  C     0.25000   0.59598   0.37500   0.05433  Uani   1.00
C1765  C     0.25000   0.68210   0.25000   0.04747  Uani   1.00
C1766  C     0.25000   0.57322   0.25000   0.04137  Uani   1.00
C1767  C     0.25000   0.60112   0.25000   0.05083  Uani   1.00
C1768  C     0.25000   0.65402   0.25000   0.05433  Uani   1.00
N1769  N     0.71686   0.74600   0.32373   0.03357  Uani   1.00
N1770  N     0.52779   0.50163   0.30085   0.03837  Uani   1.00
C1771  C     0.69301   0.74380   0.33035   0.04437  Uani   1.00
C1772  C     0.55178   0.50253   0.29393   0.05277  Uani   1.00
C1773  C     0.60943   0.50565   0.29278   0.06813  Uani   1.00
C1774  C     0.63528   0.50528   0.29270   0.07560  Uani   1.00
N1775  N     0.53314   0.50400   0.44873   0.03357  Uani   1.00
N1776  N     0.72222   0.74837   0.42585   0.03837  Uani   1.00
C1777  C     0.55699   0.50620   0.45535   0.04437  Uani   1.00
C1778  C     0.69823   0.74747   0.41893   0.05277  Uani   1.00
C1779  C     0.64058   0.74435   0.41778   0.06813  Uani   1.00
C1780  C     0.61473   0.74472   0.41770   0.07560  Uani   1.00
N1781  N     0.50400   0.71686   0.38623   0.03357  Uani   1.00
N1782  N     0.74837   0.52779   0.36335   0.03837  Uani   1.00
C1783  C     0.50620   0.69301   0.39285   0.04437  Uani   1.00
C1784  C     0.74748   0.55178   0.35643   0.05277  Uani   1.00
C1785  C     0.74435   0.60943   0.35528   0.06813  Uani   1.00
C1786  C     0.74473   0.63528   0.35520   0.07560  Uani   1.00
N1787  N     0.74600   0.53314   0.26123   0.03357  Uani   1.00
N1788  N     0.50163   0.72221   0.48835   0.03837  Uani   1.00
C1789  C     0.74380   0.55699   0.26785   0.04437  Uani   1.00
C1790  C     0.50253   0.69823   0.48143   0.05277  Uani   1.00
C1791  C     0.50565   0.64058   0.48028   0.06813  Uani   1.00
C1792  C     0.50528   0.61472   0.48020   0.07560  Uani   1.00
N1793  N     0.53314   0.74600   0.42627   0.03357  Uani   1.00
N1794  N     0.72222   0.50163   0.44915   0.03837  Uani   1.00
C1795  C     0.55699   0.74380   0.41965   0.04437  Uani   1.00
C1796  C     0.69823   0.50253   0.45608   0.05277  Uani   1.00
C1797  C     0.64058   0.50565   0.45723   0.06813  Uani   1.00
C1798  C     0.61473   0.50528   0.45730   0.07560  Uani   1.00
N1799  N     0.71686   0.50400   0.30127   0.03357  Uani   1.00
N1800  N     0.52779   0.74837   0.32415   0.03837  Uani   1.00
C1801  C     0.69301   0.50620   0.29465   0.04437  Uani   1.00
C1802  C     0.55178   0.74747   0.33108   0.05277  Uani   1.00
C1803  C     0.60943   0.74435   0.33223   0.06813  Uani   1.00
C1804  C     0.63528   0.74472   0.33230   0.07560  Uani   1.00
N1805  N     0.74600   0.71686   0.36377   0.03357  Uani   1.00
N1806  N     0.50163   0.52779   0.38665   0.03837  Uani   1.00
C1807  C     0.74380   0.69301   0.35715   0.04437  Uani   1.00
C1808  C     0.50253   0.55178   0.39358   0.05277  Uani   1.00
C1809  C     0.50565   0.60943   0.39473   0.06813  Uani   1.00
C1810  C     0.50528   0.63528   0.39480   0.07560  Uani   1.00
N1811  N     0.50400   0.53314   0.48877   0.03357  Uani   1.00
N1812  N     0.74837   0.72221   0.26165   0.03837  Uani   1.00
C1813  C     0.50620   0.55699   0.48215   0.04437  Uani   1.00
C1814  C     0.74748   0.69823   0.26857   0.05277  Uani   1.00
C1815  C     0.74435   0.64058   0.26973   0.06813  Uani   1.00
C1816  C     0.74473   0.61472   0.26980   0.07560  Uani   1.00
Co1817 Co    0.74721   0.74721   0.34375   0.02543  Uani   1.00
Co1818 Co    0.50279   0.50279   0.46875   0.02543  Uani   1.00
Co1819 Co    0.50279   0.74721   0.40625   0.02543  Uani   1.00
Co1820 Co    0.74721   0.50279   0.28125   0.02543  Uani   1.00
C1821  C     0.56790   0.50000   0.31250   0.04747  Uani   1.00
C1822  C     0.67678   0.50000   0.31250   0.04137  Uani   1.00
C1823  C     0.64888   0.50000   0.31250   0.05083  Uani   1.00
C1824  C     0.59598   0.50000   0.31250   0.05433  Uani   1.00
C1825  C     0.68210   0.50000   0.43750   0.04747  Uani   1.00
C1826  C     0.57322   0.50000   0.43750   0.04137  Uani   1.00
C1827  C     0.60112   0.50000   0.43750   0.05083  Uani   1.00
C1828  C     0.65402   0.50000   0.43750   0.05433  Uani   1.00
C1829  C     0.50000   0.56790   0.37500   0.04747  Uani   1.00
C1830  C     0.50000   0.67678   0.37500   0.04137  Uani   1.00
C1831  C     0.50000   0.64888   0.37500   0.05083  Uani   1.00
C1832  C     0.50000   0.59598   0.37500   0.05433  Uani   1.00
C1833  C     0.50000   0.68210   0.25000   0.04747  Uani   1.00
C1834  C     0.50000   0.57322   0.25000   0.04137  Uani   1.00
C1835  C     0.50000   0.60112   0.25000   0.05083  Uani   1.00
C1836  C     0.50000   0.65402   0.25000   0.05433  Uani   1.00
N1837  N     0.96686   0.74600   0.32373   0.03357  Uani   1.00
N1838  N     0.77779   0.50163   0.30085   0.03837  Uani   1.00
C1839  C     0.94301   0.74380   0.33035   0.04437  Uani   1.00
C1840  C     0.80178   0.50253   0.29393   0.05277  Uani   1.00
C1841  C     0.85943   0.50565   0.29278   0.06813  Uani   1.00
C1842  C     0.88528   0.50528   0.29270   0.07560  Uani   1.00
N1843  N     0.78314   0.50400   0.44873   0.03357  Uani   1.00
N1844  N     0.97222   0.74837   0.42585   0.03837  Uani   1.00
C1845  C     0.80699   0.50620   0.45535   0.04437  Uani   1.00
C1846  C     0.94823   0.74747   0.41893   0.05277  Uani   1.00
C1847  C     0.89058   0.74435   0.41778   0.06813  Uani   1.00
C1848  C     0.86472   0.74472   0.41770   0.07560  Uani   1.00
N1849  N     0.75400   0.71686   0.38623   0.03357  Uani   1.00
N1850  N     0.99838   0.52779   0.36335   0.03837  Uani   1.00
C1851  C     0.75620   0.69301   0.39285   0.04437  Uani   1.00
C1852  C     0.99748   0.55178   0.35643   0.05277  Uani   1.00
C1853  C     0.99435   0.60943   0.35528   0.06813  Uani   1.00
C1854  C     0.99473   0.63528   0.35520   0.07560  Uani   1.00
N1855  N     0.99600   0.53314   0.26123   0.03357  Uani   1.00
N1856  N     0.75163   0.72221   0.48835   0.03837  Uani   1.00
C1857  C     0.99380   0.55699   0.26785   0.04437  Uani   1.00
C1858  C     0.75253   0.69823   0.48143   0.05277  Uani   1.00
C1859  C     0.75565   0.64058   0.48028   0.06813  Uani   1.00
C1860  C     0.75528   0.61472   0.48020   0.07560  Uani   1.00
N1861  N     0.78314   0.74600   0.42627   0.03357  Uani   1.00
N1862  N     0.97222   0.50163   0.44915   0.03837  Uani   1.00
C1863  C     0.80699   0.74380   0.41965   0.04437  Uani   1.00
C1864  C     0.94823   0.50253   0.45608   0.05277  Uani   1.00
C1865  C     0.89058   0.50565   0.45723   0.06813  Uani   1.00
C1866  C     0.86472   0.50528   0.45730   0.07560  Uani   1.00
N1867  N     0.96686   0.50400   0.30127   0.03357  Uani   1.00
N1868  N     0.77779   0.74837   0.32415   0.03837  Uani   1.00
C1869  C     0.94301   0.50620   0.29465   0.04437  Uani   1.00
C1870  C     0.80178   0.74747   0.33108   0.05277  Uani   1.00
C1871  C     0.85943   0.74435   0.33223   0.06813  Uani   1.00
C1872  C     0.88528   0.74472   0.33230   0.07560  Uani   1.00
N1873  N     0.99600   0.71686   0.36377   0.03357  Uani   1.00
N1874  N     0.75163   0.52779   0.38665   0.03837  Uani   1.00
C1875  C     0.99380   0.69301   0.35715   0.04437  Uani   1.00
C1876  C     0.75253   0.55178   0.39358   0.05277  Uani   1.00
C1877  C     0.75565   0.60943   0.39473   0.06813  Uani   1.00
C1878  C     0.75528   0.63528   0.39480   0.07560  Uani   1.00
N1879  N     0.75400   0.53314   0.48877   0.03357  Uani   1.00
N1880  N     0.99838   0.72221   0.26165   0.03837  Uani   1.00
C1881  C     0.75620   0.55699   0.48215   0.04437  Uani   1.00
C1882  C     0.99748   0.69823   0.26857   0.05277  Uani   1.00
C1883  C     0.99435   0.64058   0.26973   0.06813  Uani   1.00
C1884  C     0.99473   0.61472   0.26980   0.07560  Uani   1.00
Co1885 Co    0.99721   0.74721   0.34375   0.02543  Uani   1.00
Co1886 Co    0.75279   0.50279   0.46875   0.02543  Uani   1.00
Co1887 Co    0.75279   0.74721   0.40625   0.02543  Uani   1.00
Co1888 Co    0.99721   0.50279   0.28125   0.02543  Uani   1.00
C1889  C     0.81790   0.50000   0.31250   0.04747  Uani   1.00
C1890  C     0.92678   0.50000   0.31250   0.04137  Uani   1.00
C1891  C     0.89888   0.50000   0.31250   0.05083  Uani   1.00
C1892  C     0.84598   0.50000   0.31250   0.05433  Uani   1.00
C1893  C     0.93210   0.50000   0.43750   0.04747  Uani   1.00
C1894  C     0.82322   0.50000   0.43750   0.04137  Uani   1.00
C1895  C     0.85113   0.50000   0.43750   0.05083  Uani   1.00
C1896  C     0.90403   0.50000   0.43750   0.05433  Uani   1.00
C1897  C     0.75000   0.56790   0.37500   0.04747  Uani   1.00
C1898  C     0.75000   0.67678   0.37500   0.04137  Uani   1.00
C1899  C     0.75000   0.64888   0.37500   0.05083  Uani   1.00
C1900  C     0.75000   0.59598   0.37500   0.05433  Uani   1.00
C1901  C     0.75000   0.68210   0.25000   0.04747  Uani   1.00
C1902  C     0.75000   0.57322   0.25000   0.04137  Uani   1.00
C1903  C     0.75000   0.60112   0.25000   0.05083  Uani   1.00
C1904  C     0.75000   0.65402   0.25000   0.05433  Uani   1.00
N1905  N     0.21686   0.99600   0.32373   0.03357  Uani   1.00
N1906  N     0.02778   0.75163   0.30085   0.03837  Uani   1.00
C1907  C     0.19301   0.99380   0.33035   0.04437  Uani   1.00
C1908  C     0.05177   0.75253   0.29393   0.05277  Uani   1.00
C1909  C     0.10943   0.75565   0.29278   0.06813  Uani   1.00
C1910  C     0.13528   0.75528   0.29270   0.07560  Uani   1.00
N1911  N     0.03314   0.75400   0.44873   0.03357  Uani   1.00
N1912  N     0.22221   0.99837   0.42585   0.03837  Uani   1.00
C1913  C     0.05699   0.75620   0.45535   0.04437  Uani   1.00
C1914  C     0.19823   0.99747   0.41893   0.05277  Uani   1.00
C1915  C     0.14057   0.99435   0.41778   0.06813  Uani   1.00
C1916  C     0.11472   0.99473   0.41770   0.07560  Uani   1.00
N1917  N     0.00400   0.96686   0.38623   0.03357  Uani   1.00
N1918  N     0.24837   0.77779   0.36335   0.03837  Uani   1.00
C1919  C     0.00620   0.94301   0.39285   0.04437  Uani   1.00
C1920  C     0.24748   0.80178   0.35643   0.05277  Uani   1.00
C1921  C     0.24435   0.85943   0.35528   0.06813  Uani   1.00
C1922  C     0.24473   0.88528   0.35520   0.07560  Uani   1.00
N1923  N     0.24600   0.78314   0.26123   0.03357  Uani   1.00
N1924  N     0.00163   0.97221   0.48835   0.03837  Uani   1.00
C1925  C     0.24380   0.80699   0.26785   0.04437  Uani   1.00
C1926  C     0.00253   0.94823   0.48143   0.05277  Uani   1.00
C1927  C     0.00565   0.89058   0.48028   0.06813  Uani   1.00
C1928  C     0.00528   0.86472   0.48020   0.07560  Uani   1.00
N1929  N     0.03314   0.99600   0.42627   0.03357  Uani   1.00
N1930  N     0.22221   0.75163   0.44915   0.03837  Uani   1.00
C1931  C     0.05699   0.99380   0.41965   0.04437  Uani   1.00
C1932  C     0.19823   0.75253   0.45608   0.05277  Uani   1.00
C1933  C     0.14057   0.75565   0.45723   0.06813  Uani   1.00
C1934  C     0.11472   0.75528   0.45730   0.07560  Uani   1.00
N1935  N     0.21686   0.75400   0.30127   0.03357  Uani   1.00
N1936  N     0.02778   0.99837   0.32415   0.03837  Uani   1.00
C1937  C     0.19301   0.75620   0.29465   0.04437  Uani   1.00
C1938  C     0.05177   0.99747   0.33108   0.05277  Uani   1.00
C1939  C     0.10943   0.99435   0.33223   0.06813  Uani   1.00
C1940  C     0.13528   0.99473   0.33230   0.07560  Uani   1.00
N1941  N     0.24600   0.96686   0.36377   0.03357  Uani   1.00
N1942  N     0.00163   0.77779   0.38665   0.03837  Uani   1.00
C1943  C     0.24380   0.94301   0.35715   0.04437  Uani   1.00
C1944  C     0.00253   0.80178   0.39358   0.05277  Uani   1.00
C1945  C     0.00565   0.85943   0.39473   0.06813  Uani   1.00
C1946  C     0.00528   0.88528   0.39480   0.07560  Uani   1.00
N1947  N     0.00400   0.78314   0.48877   0.03357  Uani   1.00
N1948  N     0.24837   0.97221   0.26165   0.03837  Uani   1.00
C1949  C     0.00620   0.80699   0.48215   0.04437  Uani   1.00
C1950  C     0.24748   0.94823   0.26857   0.05277  Uani   1.00
C1951  C     0.24435   0.89058   0.26973   0.06813  Uani   1.00
C1952  C     0.24473   0.86472   0.26980   0.07560  Uani   1.00
Co1953 Co    0.24721   0.99721   0.34375   0.02543  Uani   1.00
Co1954 Co    0.00279   0.75279   0.46875   0.02543  Uani   1.00
Co1955 Co    0.00279   0.99721   0.40625   0.02543  Uani   1.00
Co1956 Co    0.24721   0.75279   0.28125   0.02543  Uani   1.00
C1957  C     0.06790   0.75000   0.31250   0.04747  Uani   1.00
C1958  C     0.17678   0.75000   0.31250   0.04137  Uani   1.00
C1959  C     0.14888   0.75000   0.31250   0.05083  Uani   1.00
C1960  C     0.09598   0.75000   0.31250   0.05433  Uani   1.00
C1961  C     0.18210   0.75000   0.43750   0.04747  Uani   1.00
C1962  C     0.07322   0.75000   0.43750   0.04137  Uani   1.00
C1963  C     0.10112   0.75000   0.43750   0.05083  Uani   1.00
C1964  C     0.15402   0.75000   0.43750   0.05433  Uani   1.00
C1965  C     0.00000   0.81790   0.37500   0.04747  Uani   1.00
C1966  C     0.00000   0.92678   0.37500   0.04137  Uani   1.00
C1967  C     0.00000   0.89888   0.37500   0.05083  Uani   1.00
C1968  C     0.00000   0.84598   0.37500   0.05433  Uani   1.00
C1969  C     0.00000   0.93210   0.25000   0.04747  Uani   1.00
C1970  C     0.00000   0.82322   0.25000   0.04137  Uani   1.00
C1971  C     0.00000   0.85112   0.25000   0.05083  Uani   1.00
C1972  C     0.00000   0.90402   0.25000   0.05433  Uani   1.00
N1973  N     0.46686   0.99600   0.32373   0.03357  Uani   1.00
N1974  N     0.27778   0.75163   0.30085   0.03837  Uani   1.00
C1975  C     0.44301   0.99380   0.33035   0.04437  Uani   1.00
C1976  C     0.30177   0.75253   0.29393   0.05277  Uani   1.00
C1977  C     0.35943   0.75565   0.29278   0.06813  Uani   1.00
C1978  C     0.38528   0.75528   0.29270   0.07560  Uani   1.00
N1979  N     0.28314   0.75400   0.44873   0.03357  Uani   1.00
N1980  N     0.47222   0.99837   0.42585   0.03837  Uani   1.00
C1981  C     0.30699   0.75620   0.45535   0.04437  Uani   1.00
C1982  C     0.44822   0.99747   0.41893   0.05277  Uani   1.00
C1983  C     0.39057   0.99435   0.41778   0.06813  Uani   1.00
C1984  C     0.36472   0.99473   0.41770   0.07560  Uani   1.00
N1985  N     0.25400   0.96686   0.38623   0.03357  Uani   1.00
N1986  N     0.49838   0.77779   0.36335   0.03837  Uani   1.00
C1987  C     0.25620   0.94301   0.39285   0.04437  Uani   1.00
C1988  C     0.49748   0.80178   0.35643   0.05277  Uani   1.00
C1989  C     0.49435   0.85943   0.35528   0.06813  Uani   1.00
C1990  C     0.49473   0.88528   0.35520   0.07560  Uani   1.00
N1991  N     0.49600   0.78314   0.26123   0.03357  Uani   1.00
N1992  N     0.25163   0.97221   0.48835   0.03837  Uani   1.00
C1993  C     0.49380   0.80699   0.26785   0.04437  Uani   1.00
C1994  C     0.25253   0.94823   0.48143   0.05277  Uani   1.00
C1995  C     0.25565   0.89058   0.48028   0.06813  Uani   1.00
C1996  C     0.25528   0.86472   0.48020   0.07560  Uani   1.00
N1997  N     0.28314   0.99600   0.42627   0.03357  Uani   1.00
N1998  N     0.47222   0.75163   0.44915   0.03837  Uani   1.00
C1999  C     0.30699   0.99380   0.41965   0.04437  Uani   1.00
C2000  C     0.44822   0.75253   0.45608   0.05277  Uani   1.00
C2001  C     0.39057   0.75565   0.45723   0.06813  Uani   1.00
C2002  C     0.36472   0.75528   0.45730   0.07560  Uani   1.00
N2003  N     0.46686   0.75400   0.30127   0.03357  Uani   1.00
N2004  N     0.27778   0.99837   0.32415   0.03837  Uani   1.00
C2005  C     0.44301   0.75620   0.29465   0.04437  Uani   1.00
C2006  C     0.30177   0.99747   0.33108   0.05277  Uani   1.00
C2007  C     0.35943   0.99435   0.33223   0.06813  Uani   1.00
C2008  C     0.38528   0.99473   0.33230   0.07560  Uani   1.00
N2009  N     0.49600   0.96686   0.36377   0.03357  Uani   1.00
N2010  N     0.25163   0.77779   0.38665   0.03837  Uani   1.00
C2011  C     0.49380   0.94301   0.35715   0.04437  Uani   1.00
C2012  C     0.25253   0.80178   0.39358   0.05277  Uani   1.00
C2013  C     0.25565   0.85943   0.39473   0.06813  Uani   1.00
C2014  C     0.25528   0.88528   0.39480   0.07560  Uani   1.00
N2015  N     0.25400   0.78314   0.48877   0.03357  Uani   1.00
N2016  N     0.49838   0.97221   0.26165   0.03837  Uani   1.00
C2017  C     0.25620   0.80699   0.48215   0.04437  Uani   1.00
C2018  C     0.49748   0.94823   0.26857   0.05277  Uani   1.00
C2019  C     0.49435   0.89058   0.26973   0.06813  Uani   1.00
C2020  C     0.49473   0.86472   0.26980   0.07560  Uani   1.00
Co2021 Co    0.49721   0.99721   0.34375   0.02543  Uani   1.00
Co2022 Co    0.25279   0.75279   0.46875   0.02543  Uani   1.00
Co2023 Co    0.25279   0.99721   0.40625   0.02543  Uani   1.00
Co2024 Co    0.49721   0.75279   0.28125   0.02543  Uani   1.00
C2025  C     0.31790   0.75000   0.31250   0.04747  Uani   1.00
C2026  C     0.42678   0.75000   0.31250   0.04137  Uani   1.00
C2027  C     0.39888   0.75000   0.31250   0.05083  Uani   1.00
C2028  C     0.34598   0.75000   0.31250   0.05433  Uani   1.00
C2029  C     0.43210   0.75000   0.43750   0.04747  Uani   1.00
C2030  C     0.32322   0.75000   0.43750   0.04137  Uani   1.00
C2031  C     0.35112   0.75000   0.43750   0.05083  Uani   1.00
C2032  C     0.40403   0.75000   0.43750   0.05433  Uani   1.00
C2033  C     0.25000   0.81790   0.37500   0.04747  Uani   1.00
C2034  C     0.25000   0.92678   0.37500   0.04137  Uani   1.00
C2035  C     0.25000   0.89888   0.37500   0.05083  Uani   1.00
C2036  C     0.25000   0.84598   0.37500   0.05433  Uani   1.00
C2037  C     0.25000   0.93210   0.25000   0.04747  Uani   1.00
C2038  C     0.25000   0.82322   0.25000   0.04137  Uani   1.00
C2039  C     0.25000   0.85112   0.25000   0.05083  Uani   1.00
C2040  C     0.25000   0.90402   0.25000   0.05433  Uani   1.00
N2041  N     0.71686   0.99600   0.32373   0.03357  Uani   1.00
N2042  N     0.52779   0.75163   0.30085   0.03837  Uani   1.00
C2043  C     0.69301   0.99380   0.33035   0.04437  Uani   1.00
C2044  C     0.55178   0.75253   0.29393   0.05277  Uani   1.00
C2045  C     0.60943   0.75565   0.29278   0.06813  Uani   1.00
C2046  C     0.63528   0.75528   0.29270   0.07560  Uani   1.00
N2047  N     0.53314   0.75400   0.44873   0.03357  Uani   1.00
N2048  N     0.72222   0.99837   0.42585   0.03837  Uani   1.00
C2049  C     0.55699   0.75620   0.45535   0.04437  Uani   1.00
C2050  C     0.69823   0.99747   0.41893   0.05277  Uani   1.00
C2051  C     0.64058   0.99435   0.41778   0.06813  Uani   1.00
C2052  C     0.61473   0.99473   0.41770   0.07560  Uani   1.00
N2053  N     0.50400   0.96686   0.38623   0.03357  Uani   1.00
N2054  N     0.74837   0.77779   0.36335   0.03837  Uani   1.00
C2055  C     0.50620   0.94301   0.39285   0.04437  Uani   1.00
C2056  C     0.74748   0.80178   0.35643   0.05277  Uani   1.00
C2057  C     0.74435   0.85943   0.35528   0.06813  Uani   1.00
C2058  C     0.74473   0.88528   0.35520   0.07560  Uani   1.00
N2059  N     0.74600   0.78314   0.26123   0.03357  Uani   1.00
N2060  N     0.50163   0.97221   0.48835   0.03837  Uani   1.00
C2061  C     0.74380   0.80699   0.26785   0.04437  Uani   1.00
C2062  C     0.50253   0.94823   0.48143   0.05277  Uani   1.00
C2063  C     0.50565   0.89058   0.48028   0.06813  Uani   1.00
C2064  C     0.50528   0.86472   0.48020   0.07560  Uani   1.00
N2065  N     0.53314   0.99600   0.42627   0.03357  Uani   1.00
N2066  N     0.72222   0.75163   0.44915   0.03837  Uani   1.00
C2067  C     0.55699   0.99380   0.41965   0.04437  Uani   1.00
C2068  C     0.69823   0.75253   0.45608   0.05277  Uani   1.00
C2069  C     0.64058   0.75565   0.45723   0.06813  Uani   1.00
C2070  C     0.61473   0.75528   0.45730   0.07560  Uani   1.00
N2071  N     0.71686   0.75400   0.30127   0.03357  Uani   1.00
N2072  N     0.52779   0.99837   0.32415   0.03837  Uani   1.00
C2073  C     0.69301   0.75620   0.29465   0.04437  Uani   1.00
C2074  C     0.55178   0.99747   0.33108   0.05277  Uani   1.00
C2075  C     0.60943   0.99435   0.33223   0.06813  Uani   1.00
C2076  C     0.63528   0.99473   0.33230   0.07560  Uani   1.00
N2077  N     0.74600   0.96686   0.36377   0.03357  Uani   1.00
N2078  N     0.50163   0.77779   0.38665   0.03837  Uani   1.00
C2079  C     0.74380   0.94301   0.35715   0.04437  Uani   1.00
C2080  C     0.50253   0.80178   0.39358   0.05277  Uani   1.00
C2081  C     0.50565   0.85943   0.39473   0.06813  Uani   1.00
C2082  C     0.50528   0.88528   0.39480   0.07560  Uani   1.00
N2083  N     0.50400   0.78314   0.48877   0.03357  Uani   1.00
N2084  N     0.74837   0.97221   0.26165   0.03837  Uani   1.00
C2085  C     0.50620   0.80699   0.48215   0.04437  Uani   1.00
C2086  C     0.74748   0.94823   0.26857   0.05277  Uani   1.00
C2087  C     0.74435   0.89058   0.26973   0.06813  Uani   1.00
C2088  C     0.74473   0.86472   0.26980   0.07560  Uani   1.00
Co2089 Co    0.74721   0.99721   0.34375   0.02543  Uani   1.00
Co2090 Co    0.50279   0.75279   0.46875   0.02543  Uani   1.00
Co2091 Co    0.50279   0.99721   0.40625   0.02543  Uani   1.00
Co2092 Co    0.74721   0.75279   0.28125   0.02543  Uani   1.00
C2093  C     0.56790   0.75000   0.31250   0.04747  Uani   1.00
C2094  C     0.67678   0.75000   0.31250   0.04137  Uani   1.00
C2095  C     0.64888   0.75000   0.31250   0.05083  Uani   1.00
C2096  C     0.59598   0.75000   0.31250   0.05433  Uani   1.00
C2097  C     0.68210   0.75000   0.43750   0.04747  Uani   1.00
C2098  C     0.57322   0.75000   0.43750   0.04137  Uani   1.00
C2099  C     0.60112   0.75000   0.43750   0.05083  Uani   1.00
C2100  C     0.65402   0.75000   0.43750   0.05433  Uani   1.00
C2101  C     0.50000   0.81790   0.37500   0.04747  Uani   1.00
C2102  C     0.50000   0.92678   0.37500   0.04137  Uani   1.00
C2103  C     0.50000   0.89888   0.37500   0.05083  Uani   1.00
C2104  C     0.50000   0.84598   0.37500   0.05433  Uani   1.00
C2105  C     0.50000   0.93210   0.25000   0.04747  Uani   1.00
C2106  C     0.50000   0.82322   0.25000   0.04137  Uani   1.00
C2107  C     0.50000   0.85112   0.25000   0.05083  Uani   1.00
C2108  C     0.50000   0.90402   0.25000   0.05433  Uani   1.00
N2109  N     0.96686   0.99600   0.32373   0.03357  Uani   1.00
N2110  N     0.77779   0.75163   0.30085   0.03837  Uani   1.00
C2111  C     0.94301   0.99380   0.33035   0.04437  Uani   1.00
C2112  C     0.80178   0.75253   0.29393   0.05277  Uani   1.00
C2113  C     0.85943   0.75565   0.29278   0.06813  Uani   1.00
C2114  C     0.88528   0.75528   0.29270   0.07560  Uani   1.00
N2115  N     0.78314   0.75400   0.44873   0.03357  Uani   1.00
N2116  N     0.97222   0.99837   0.42585   0.03837  Uani   1.00
C2117  C     0.80699   0.75620   0.45535   0.04437  Uani   1.00
C2118  C     0.94823   0.99747   0.41893   0.05277  Uani   1.00
C2119  C     0.89058   0.99435   0.41778   0.06813  Uani   1.00
C2120  C     0.86472   0.99473   0.41770   0.07560  Uani   1.00
N2121  N     0.75400   0.96686   0.38623   0.03357  Uani   1.00
N2122  N     0.99838   0.77779   0.36335   0.03837  Uani   1.00
C2123  C     0.75620   0.94301   0.39285   0.04437  Uani   1.00
C2124  C     0.99748   0.80178   0.35643   0.05277  Uani   1.00
C2125  C     0.99435   0.85943   0.35528   0.06813  Uani   1.00
C2126  C     0.99473   0.88528   0.35520   0.07560  Uani   1.00
N2127  N     0.99600   0.78314   0.26123   0.03357  Uani   1.00
N2128  N     0.75163   0.97221   0.48835   0.03837  Uani   1.00
C2129  C     0.99380   0.80699   0.26785   0.04437  Uani   1.00
C2130  C     0.75253   0.94823   0.48143   0.05277  Uani   1.00
C2131  C     0.75565   0.89058   0.48028   0.06813  Uani   1.00
C2132  C     0.75528   0.86472   0.48020   0.07560  Uani   1.00
N2133  N     0.78314   0.99600   0.42627   0.03357  Uani   1.00
N2134  N     0.97222   0.75163   0.44915   0.03837  Uani   1.00
C2135  C     0.80699   0.99380   0.41965   0.04437  Uani   1.00
C2136  C     0.94823   0.75253   0.45608   0.05277  Uani   1.00
C2137  C     0.89058   0.75565   0.45723   0.06813  Uani   1.00
C2138  C     0.86472   0.75528   0.45730   0.07560  Uani   1.00
N2139  N     0.96686   0.75400   0.30127   0.03357  Uani   1.00
N2140  N     0.77779   0.99837   0.32415   0.03837  Uani   1.00
C2141  C     0.94301   0.75620   0.29465   0.04437  Uani   1.00
C2142  C     0.80178   0.99747   0.33108   0.05277  Uani   1.00
C2143  C     0.85943   0.99435   0.33223   0.06813  Uani   1.00
C2144  C     0.88528   0.99473   0.33230   0.07560  Uani   1.00
N2145  N     0.99600   0.96686   0.36377   0.03357  Uani   1.00
N2146  N     0.75163   0.77779   0.38665   0.03837  Uani   1.00
C2147  C     0.99380   0.94301   0.35715   0.04437  Uani   1.00
C2148  C     0.75253   0.80178   0.39358   0.05277  Uani   1.00
C2149  C     0.75565   0.85943   0.39473   0.06813  Uani   1.00
C2150  C     0.75528   0.88528   0.39480   0.07560  Uani   1.00
N2151  N     0.75400   0.78314   0.48877   0.03357  Uani   1.00
N2152  N     0.99838   0.97221   0.26165   0.03837  Uani   1.00
C2153  C     0.75620   0.80699   0.48215   0.04437  Uani   1.00
C2154  C     0.99748   0.94823   0.26857   0.05277  Uani   1.00
C2155  C     0.99435   0.89058   0.26973   0.06813  Uani   1.00
C2156  C     0.99473   0.86472   0.26980   0.07560  Uani   1.00
Co2157 Co    0.99721   0.99721   0.34375   0.02543  Uani   1.00
Co2158 Co    0.75279   0.75279   0.46875   0.02543  Uani   1.00
Co2159 Co    0.75279   0.99721   0.40625   0.02543  Uani   1.00
Co2160 Co    0.99721   0.75279   0.28125   0.02543  Uani   1.00
C2161  C     0.81790   0.75000   0.31250   0.04747  Uani   1.00
C2162  C     0.92678   0.75000   0.31250   0.04137  Uani   1.00
C2163  C     0.89888   0.75000   0.31250   0.05083  Uani   1.00
C2164  C     0.84598   0.75000   0.31250   0.05433  Uani   1.00
C2165  C     0.93210   0.75000   0.43750   0.04747  Uani   1.00
C2166  C     0.82322   0.75000   0.43750   0.04137  Uani   1.00
C2167  C     0.85113   0.75000   0.43750   0.05083  Uani   1.00
C2168  C     0.90403   0.75000   0.43750   0.05433  Uani   1.00
C2169  C     0.75000   0.81790   0.37500   0.04747  Uani   1.00
C2170  C     0.75000   0.92678   0.37500   0.04137  Uani   1.00
C2171  C     0.75000   0.89888   0.37500   0.05083  Uani   1.00
C2172  C     0.75000   0.84598   0.37500   0.05433  Uani   1.00
C2173  C     0.75000   0.93210   0.25000   0.04747  Uani   1.00
C2174  C     0.75000   0.82322   0.25000   0.04137  Uani   1.00
C2175  C     0.75000   0.85112   0.25000   0.05083  Uani   1.00
C2176  C     0.75000   0.90402   0.25000   0.05433  Uani   1.00
N2177  N     0.21686   0.24600   0.57373   0.03357  Uani   1.00
N2178  N     0.02778   0.00163   0.55085   0.03837  Uani   1.00
C2179  C     0.19301   0.24380   0.58035   0.04437  Uani   1.00
C2180  C     0.05177   0.00253   0.54393   0.05277  Uani   1.00
C2181  C     0.10943   0.00565   0.54278   0.06813  Uani   1.00
C2182  C     0.13528   0.00528   0.54270   0.07560  Uani   1.00
N2183  N     0.03314   0.00400   0.69873   0.03357  Uani   1.00
N2184  N     0.22221   0.24837   0.67585   0.03837  Uani   1.00
C2185  C     0.05699   0.00620   0.70535   0.04437  Uani   1.00
C2186  C     0.19823   0.24747   0.66893   0.05277  Uani   1.00
C2187  C     0.14057   0.24435   0.66778   0.06813  Uani   1.00
C2188  C     0.11472   0.24472   0.66770   0.07560  Uani   1.00
N2189  N     0.00400   0.21686   0.63623   0.03357  Uani   1.00
N2190  N     0.24837   0.02779   0.61335   0.03837  Uani   1.00
C2191  C     0.00620   0.19301   0.64285   0.04437  Uani   1.00
C2192  C     0.24748   0.05178   0.60643   0.05277  Uani   1.00
C2193  C     0.24435   0.10943   0.60528   0.06813  Uani   1.00
C2194  C     0.24473   0.13528   0.60520   0.07560  Uani   1.00
N2195  N     0.24600   0.03314   0.51123   0.03357  Uani   1.00
N2196  N     0.00163   0.22221   0.73835   0.03837  Uani   1.00
C2197  C     0.24380   0.05699   0.51785   0.04437  Uani   1.00
C2198  C     0.00253   0.19823   0.73143   0.05277  Uani   1.00
C2199  C     0.00565   0.14058   0.73028   0.06813  Uani   1.00
C2200  C     0.00528   0.11472   0.73020   0.07560  Uani   1.00
N2201  N     0.03314   0.24600   0.67627   0.03357  Uani   1.00
N2202  N     0.22221   0.00163   0.69915   0.03837  Uani   1.00
C2203  C     0.05699   0.24380   0.66965   0.04437  Uani   1.00
C2204  C     0.19823   0.00253   0.70608   0.05277  Uani   1.00
C2205  C     0.14057   0.00565   0.70723   0.06813  Uani   1.00
C2206  C     0.11472   0.00528   0.70730   0.07560  Uani   1.00
N2207  N     0.21686   0.00400   0.55127   0.03357  Uani   1.00
N2208  N     0.02778   0.24837   0.57415   0.03837  Uani   1.00
C2209  C     0.19301   0.00620   0.54465   0.04437  Uani   1.00
C2210  C     0.05177   0.24747   0.58108   0.05277  Uani   1.00
C2211  C     0.10943   0.24435   0.58223   0.06813  Uani   1.00
C2212  C     0.13528   0.24472   0.58230   0.07560  Uani   1.00
N2213  N     0.24600   0.21686   0.61377   0.03357  Uani   1.00
N2214  N     0.00163   0.02779   0.63665   0.03837  Uani   1.00
C2215  C     0.24380   0.19301   0.60715   0.04437  Uani   1.00
C2216  C     0.00253   0.05178   0.64358   0.05277  Uani   1.00
C2217  C     0.00565   0.10943   0.64473   0.06813  Uani   1.00
C2218  C     0.00528   0.13528   0.64480   0.07560  Uani   1.00
N2219  N     0.00400   0.03314   0.73877   0.03357  Uani   1.00
N2220  N     0.24837   0.22221   0.51165   0.03837  Uani   1.00
C2221  C     0.00620   0.05699   0.73215   0.04437  Uani   1.00
C2222  C     0.24748   0.19823   0.51858   0.05277  Uani   1.00
C2223  C     0.24435   0.14058   0.51973   0.06813  Uani   1.00
C2224  C     0.24473   0.11472   0.51980   0.07560  Uani   1.00
Co2225 Co    0.24721   0.24721   0.59375   0.02543  Uani   1.00
Co2226 Co    0.00279   0.00279   0.71875   0.02543  Uani   1.00
Co2227 Co    0.00279   0.24721   0.65625   0.02543  Uani   1.00
Co2228 Co    0.24721   0.00279   0.53125   0.02543  Uani   1.00
C2229  C     0.06790   0.00000   0.56250   0.04747  Uani   1.00
C2230  C     0.17678   0.00000   0.56250   0.04137  Uani   1.00
C2231  C     0.14888   0.00000   0.56250   0.05083  Uani   1.00
C2232  C     0.09598   0.00000   0.56250   0.05433  Uani   1.00
C2233  C     0.18210   0.00000   0.68750   0.04747  Uani   1.00
C2234  C     0.07322   0.00000   0.68750   0.04137  Uani   1.00
C2235  C     0.10112   0.00000   0.68750   0.05083  Uani   1.00
C2236  C     0.15402   0.00000   0.68750   0.05433  Uani   1.00
C2237  C     0.00000   0.06790   0.62500   0.04747  Uani   1.00
C2238  C     0.00000   0.17678   0.62500   0.04137  Uani   1.00
C2239  C     0.00000   0.14888   0.62500   0.05083  Uani   1.00
C2240  C     0.00000   0.09598   0.62500   0.05433  Uani   1.00
C2241  C     0.00000   0.18210   0.50000   0.04747  Uani   1.00
C2242  C     0.00000   0.07322   0.50000   0.04137  Uani   1.00
C2243  C     0.00000   0.10112   0.50000   0.05083  Uani   1.00
C2244  C     0.00000   0.15402   0.50000   0.05433  Uani   1.00
N2245  N     0.46686   0.24600   0.57373   0.03357  Uani   1.00
N2246  N     0.27778   0.00163   0.55085   0.03837  Uani   1.00
C2247  C     0.44301   0.24380   0.58035   0.04437  Uani   1.00
C2248  C     0.30177   0.00253   0.54393   0.05277  Uani   1.00
C2249  C     0.35943   0.00565   0.54278   0.06813  Uani   1.00
C2250  C     0.38528   0.00528   0.54270   0.07560  Uani   1.00
N2251  N     0.28314   0.00400   0.69873   0.03357  Uani   1.00
N2252  N     0.47222   0.24837   0.67585   0.03837  Uani   1.00
C2253  C     0.30699   0.00620   0.70535   0.04437  Uani   1.00
C2254  C     0.44822   0.24747   0.66893   0.05277  Uani   1.00
C2255  C     0.39057   0.24435   0.66778   0.06813  Uani   1.00
C2256  C     0.36472   0.24472   0.66770   0.07560  Uani   1.00
N2257  N     0.25400   0.21686   0.63623   0.03357  Uani   1.00
N2258  N     0.49838   0.02779   0.61335   0.03837  Uani   1.00
C2259  C     0.25620   0.19301   0.64285   0.04437  Uani   1.00
C2260  C     0.49748   0.05178   0.60643   0.05277  Uani   1.00
C2261  C     0.49435   0.10943   0.60528   0.06813  Uani   1.00
C2262  C     0.49473   0.13528   0.60520   0.07560  Uani   1.00
N2263  N     0.49600   0.03314   0.51123   0.03357  Uani   1.00
N2264  N     0.25163   0.22221   0.73835   0.03837  Uani   1.00
C2265  C     0.49380   0.05699   0.51785   0.04437  Uani   1.00
C2266  C     0.25253   0.19823   0.73143   0.05277  Uani   1.00
C2267  C     0.25565   0.14058   0.73028   0.06813  Uani   1.00
C2268  C     0.25528   0.11472   0.73020   0.07560  Uani   1.00
N2269  N     0.28314   0.24600   0.67627   0.03357  Uani   1.00
N2270  N     0.47222   0.00163   0.69915   0.03837  Uani   1.00
C2271  C     0.30699   0.24380   0.66965   0.04437  Uani   1.00
C2272  C     0.44822   0.00253   0.70608   0.05277  Uani   1.00
C2273  C     0.39057   0.00565   0.70723   0.06813  Uani   1.00
C2274  C     0.36472   0.00528   0.70730   0.07560  Uani   1.00
N2275  N     0.46686   0.00400   0.55127   0.03357  Uani   1.00
N2276  N     0.27778   0.24837   0.57415   0.03837  Uani   1.00
C2277  C     0.44301   0.00620   0.54465   0.04437  Uani   1.00
C2278  C     0.30177   0.24747   0.58108   0.05277  Uani   1.00
C2279  C     0.35943   0.24435   0.58223   0.06813  Uani   1.00
C2280  C     0.38528   0.24472   0.58230   0.07560  Uani   1.00
N2281  N     0.49600   0.21686   0.61377   0.03357  Uani   1.00
N2282  N     0.25163   0.02779   0.63665   0.03837  Uani   1.00
C2283  C     0.49380   0.19301   0.60715   0.04437  Uani   1.00
C2284  C     0.25253   0.05178   0.64358   0.05277  Uani   1.00
C2285  C     0.25565   0.10943   0.64473   0.06813  Uani   1.00
C2286  C     0.25528   0.13528   0.64480   0.07560  Uani   1.00
N2287  N     0.25400   0.03314   0.73877   0.03357  Uani   1.00
N2288  N     0.49838   0.22221   0.51165   0.03837  Uani   1.00
C2289  C     0.25620   0.05699   0.73215   0.04437  Uani   1.00
C2290  C     0.49748   0.19823   0.51858   0.05277  Uani   1.00
C2291  C     0.49435   0.14058   0.51973   0.06813  Uani   1.00
C2292  C     0.49473   0.11472   0.51980   0.07560  Uani   1.00
Co2293 Co    0.49721   0.24721   0.59375   0.02543  Uani   1.00
Co2294 Co    0.25279   0.00279   0.71875   0.02543  Uani   1.00
Co2295 Co    0.25279   0.24721   0.65625   0.02543  Uani   1.00
Co2296 Co    0.49721   0.00279   0.53125   0.02543  Uani   1.00
C2297  C     0.31790   0.00000   0.56250   0.04747  Uani   1.00
C2298  C     0.42678   0.00000   0.56250   0.04137  Uani   1.00
C2299  C     0.39888   0.00000   0.56250   0.05083  Uani   1.00
C2300  C     0.34598   0.00000   0.56250   0.05433  Uani   1.00
C2301  C     0.43210   0.00000   0.68750   0.04747  Uani   1.00
C2302  C     0.32322   0.00000   0.68750   0.04137  Uani   1.00
C2303  C     0.35112   0.00000   0.68750   0.05083  Uani   1.00
C2304  C     0.40403   0.00000   0.68750   0.05433  Uani   1.00
C2305  C     0.25000   0.06790   0.62500   0.04747  Uani   1.00
C2306  C     0.25000   0.17678   0.62500   0.04137  Uani   1.00
C2307  C     0.25000   0.14888   0.62500   0.05083  Uani   1.00
C2308  C     0.25000   0.09598   0.62500   0.05433  Uani   1.00
C2309  C     0.25000   0.18210   0.50000   0.04747  Uani   1.00
C2310  C     0.25000   0.07322   0.50000   0.04137  Uani   1.00
C2311  C     0.25000   0.10112   0.50000   0.05083  Uani   1.00
C2312  C     0.25000   0.15402   0.50000   0.05433  Uani   1.00
N2313  N     0.71686   0.24600   0.57373   0.03357  Uani   1.00
N2314  N     0.52779   0.00163   0.55085   0.03837  Uani   1.00
C2315  C     0.69301   0.24380   0.58035   0.04437  Uani   1.00
C2316  C     0.55178   0.00253   0.54393   0.05277  Uani   1.00
C2317  C     0.60943   0.00565   0.54278   0.06813  Uani   1.00
C2318  C     0.63528   0.00528   0.54270   0.07560  Uani   1.00
N2319  N     0.53314   0.00400   0.69873   0.03357  Uani   1.00
N2320  N     0.72222   0.24837   0.67585   0.03837  Uani   1.00
C2321  C     0.55699   0.00620   0.70535   0.04437  Uani   1.00
C2322  C     0.69823   0.24747   0.66893   0.05277  Uani   1.00
C2323  C     0.64058   0.24435   0.66778   0.06813  Uani   1.00
C2324  C     0.61473   0.24472   0.66770   0.07560  Uani   1.00
N2325  N     0.50400   0.21686   0.63623   0.03357  Uani   1.00
N2326  N     0.74837   0.02779   0.61335   0.03837  Uani   1.00
C2327  C     0.50620   0.19301   0.64285   0.04437  Uani   1.00
C2328  C     0.74748   0.05178   0.60643   0.05277  Uani   1.00
C2329  C     0.74435   0.10943   0.60528   0.06813  Uani   1.00
C2330  C     0.74473   0.13528   0.60520   0.07560  Uani   1.00
N2331  N     0.74600   0.03314   0.51123   0.03357  Uani   1.00
N2332  N     0.50163   0.22221   0.73835   0.03837  Uani   1.00
C2333  C     0.74380   0.05699   0.51785   0.04437  Uani   1.00
C2334  C     0.50253   0.19823   0.73143   0.05277  Uani   1.00
C2335  C     0.50565   0.14058   0.73028   0.06813  Uani   1.00
C2336  C     0.50528   0.11472   0.73020   0.07560  Uani   1.00
N2337  N     0.53314   0.24600   0.67627   0.03357  Uani   1.00
N2338  N     0.72222   0.00163   0.69915   0.03837  Uani   1.00
C2339  C     0.55699   0.24380   0.66965   0.04437  Uani   1.00
C2340  C     0.69823   0.00253   0.70608   0.05277  Uani   1.00
C2341  C     0.64058   0.00565   0.70723   0.06813  Uani   1.00
C2342  C     0.61473   0.00528   0.70730   0.07560  Uani   1.00
N2343  N     0.71686   0.00400   0.55127   0.03357  Uani   1.00
N2344  N     0.52779   0.24837   0.57415   0.03837  Uani   1.00
C2345  C     0.69301   0.00620   0.54465   0.04437  Uani   1.00
C2346  C     0.55178   0.24747   0.58108   0.05277  Uani   1.00
C2347  C     0.60943   0.24435   0.58223   0.06813  Uani   1.00
C2348  C     0.63528   0.24472   0.58230   0.07560  Uani   1.00
N2349  N     0.74600   0.21686   0.61377   0.03357  Uani   1.00
N2350  N     0.50163   0.02779   0.63665   0.03837  Uani   1.00
C2351  C     0.74380   0.19301   0.60715   0.04437  Uani   1.00
C2352  C     0.50253   0.05178   0.64358   0.05277  Uani   1.00
C2353  C     0.50565   0.10943   0.64473   0.06813  Uani   1.00
C2354  C     0.50528   0.13528   0.64480   0.07560  Uani   1.00
N2355  N     0.50400   0.03314   0.73877   0.03357  Uani   1.00
N2356  N     0.74837   0.22221   0.51165   0.03837  Uani   1.00
C2357  C     0.50620   0.05699   0.73215   0.04437  Uani   1.00
C2358  C     0.74748   0.19823   0.51858   0.05277  Uani   1.00
C2359  C     0.74435   0.14058   0.51973   0.06813  Uani   1.00
C2360  C     0.74473   0.11472   0.51980   0.07560  Uani   1.00
Co2361 Co    0.74721   0.24721   0.59375   0.02543  Uani   1.00
Co2362 Co    0.50279   0.00279   0.71875   0.02543  Uani   1.00
Co2363 Co    0.50279   0.24721   0.65625   0.02543  Uani   1.00
Co2364 Co    0.74721   0.00279   0.53125   0.02543  Uani   1.00
C2365  C     0.56790   0.00000   0.56250   0.04747  Uani   1.00
C2366  C     0.67678   0.00000   0.56250   0.04137  Uani   1.00
C2367  C     0.64888   0.00000   0.56250   0.05083  Uani   1.00
C2368  C     0.59598   0.00000   0.56250   0.05433  Uani   1.00
C2369  C     0.68210   0.00000   0.68750   0.04747  Uani   1.00
C2370  C     0.57322   0.00000   0.68750   0.04137  Uani   1.00
C2371  C     0.60112   0.00000   0.68750   0.05083  Uani   1.00
C2372  C     0.65402   0.00000   0.68750   0.05433  Uani   1.00
C2373  C     0.50000   0.06790   0.62500   0.04747  Uani   1.00
C2374  C     0.50000   0.17678   0.62500   0.04137  Uani   1.00
C2375  C     0.50000   0.14888   0.62500   0.05083  Uani   1.00
C2376  C     0.50000   0.09598   0.62500   0.05433  Uani   1.00
C2377  C     0.50000   0.18210   0.50000   0.04747  Uani   1.00
C2378  C     0.50000   0.07322   0.50000   0.04137  Uani   1.00
C2379  C     0.50000   0.10112   0.50000   0.05083  Uani   1.00
C2380  C     0.50000   0.15402   0.50000   0.05433  Uani   1.00
N2381  N     0.96686   0.24600   0.57373   0.03357  Uani   1.00
N2382  N     0.77779   0.00163   0.55085   0.03837  Uani   1.00
C2383  C     0.94301   0.24380   0.58035   0.04437  Uani   1.00
C2384  C     0.80178   0.00253   0.54393   0.05277  Uani   1.00
C2385  C     0.85943   0.00565   0.54278   0.06813  Uani   1.00
C2386  C     0.88528   0.00528   0.54270   0.07560  Uani   1.00
N2387  N     0.78314   0.00400   0.69873   0.03357  Uani   1.00
N2388  N     0.97222   0.24837   0.67585   0.03837  Uani   1.00
C2389  C     0.80699   0.00620   0.70535   0.04437  Uani   1.00
C2390  C     0.94823   0.24747   0.66893   0.05277  Uani   1.00
C2391  C     0.89058   0.24435   0.66778   0.06813  Uani   1.00
C2392  C     0.86472   0.24472   0.66770   0.07560  Uani   1.00
N2393  N     0.75400   0.21686   0.63623   0.03357  Uani   1.00
N2394  N     0.99838   0.02779   0.61335   0.03837  Uani   1.00
C2395  C     0.75620   0.19301   0.64285   0.04437  Uani   1.00
C2396  C     0.99748   0.05178   0.60643   0.05277  Uani   1.00
C2397  C     0.99435   0.10943   0.60528   0.06813  Uani   1.00
C2398  C     0.99473   0.13528   0.60520   0.07560  Uani   1.00
N2399  N     0.99600   0.03314   0.51123   0.03357  Uani   1.00
N2400  N     0.75163   0.22221   0.73835   0.03837  Uani   1.00
C2401  C     0.99380   0.05699   0.51785   0.04437  Uani   1.00
C2402  C     0.75253   0.19823   0.73143   0.05277  Uani   1.00
C2403  C     0.75565   0.14058   0.73028   0.06813  Uani   1.00
C2404  C     0.75528   0.11472   0.73020   0.07560  Uani   1.00
N2405  N     0.78314   0.24600   0.67627   0.03357  Uani   1.00
N2406  N     0.97222   0.00163   0.69915   0.03837  Uani   1.00
C2407  C     0.80699   0.24380   0.66965   0.04437  Uani   1.00
C2408  C     0.94823   0.00253   0.70608   0.05277  Uani   1.00
C2409  C     0.89058   0.00565   0.70723   0.06813  Uani   1.00
C2410  C     0.86472   0.00528   0.70730   0.07560  Uani   1.00
N2411  N     0.96686   0.00400   0.55127   0.03357  Uani   1.00
N2412  N     0.77779   0.24837   0.57415   0.03837  Uani   1.00
C2413  C     0.94301   0.00620   0.54465   0.04437  Uani   1.00
C2414  C     0.80178   0.24747   0.58108   0.05277  Uani   1.00
C2415  C     0.85943   0.24435   0.58223   0.06813  Uani   1.00
C2416  C     0.88528   0.24472   0.58230   0.07560  Uani   1.00
N2417  N     0.99600   0.21686   0.61377   0.03357  Uani   1.00
N2418  N     0.75163   0.02779   0.63665   0.03837  Uani   1.00
C2419  C     0.99380   0.19301   0.60715   0.04437  Uani   1.00
C2420  C     0.75253   0.05178   0.64358   0.05277  Uani   1.00
C2421  C     0.75565   0.10943   0.64473   0.06813  Uani   1.00
C2422  C     0.75528   0.13528   0.64480   0.07560  Uani   1.00
N2423  N     0.75400   0.03314   0.73877   0.03357  Uani   1.00
N2424  N     0.99838   0.22221   0.51165   0.03837  Uani   1.00
C2425  C     0.75620   0.05699   0.73215   0.04437  Uani   1.00
C2426  C     0.99748   0.19823   0.51858   0.05277  Uani   1.00
C2427  C     0.99435   0.14058   0.51973   0.06813  Uani   1.00
C2428  C     0.99473   0.11472   0.51980   0.07560  Uani   1.00
Co2429 Co    0.99721   0.24721   0.59375   0.02543  Uani   1.00
Co2430 Co    0.75279   0.00279   0.71875   0.02543  Uani   1.00
Co2431 Co    0.75279   0.24721   0.65625   0.02543  Uani   1.00
Co2432 Co    0.99721   0.00279   0.53125   0.02543  Uani   1.00
C2433  C     0.81790   0.00000   0.56250   0.04747  Uani   1.00
C2434  C     0.92678   0.00000   0.56250   0.04137  Uani   1.00
C2435  C     0.89888   0.00000   0.56250   0.05083  Uani   1.00
C2436  C     0.84598   0.00000   0.56250   0.05433  Uani   1.00
C2437  C     0.93210   0.00000   0.68750   0.04747  Uani   1.00
C2438  C     0.82322   0.00000   0.68750   0.04137  Uani   1.00
C2439  C     0.85113   0.00000   0.68750   0.05083  Uani   1.00
C2440  C     0.90403   0.00000   0.68750   0.05433  Uani   1.00
C2441  C     0.75000   0.06790   0.62500   0.04747  Uani   1.00
C2442  C     0.75000   0.17678   0.62500   0.04137  Uani   1.00
C2443  C     0.75000   0.14888   0.62500   0.05083  Uani   1.00
C2444  C     0.75000   0.09598   0.62500   0.05433  Uani   1.00
C2445  C     0.75000   0.18210   0.50000   0.04747  Uani   1.00
C2446  C     0.75000   0.07322   0.50000   0.04137  Uani   1.00
C2447  C     0.75000   0.10112   0.50000   0.05083  Uani   1.00
C2448  C     0.75000   0.15402   0.50000   0.05433  Uani   1.00
N2449  N     0.21686   0.49600   0.57373   0.03357  Uani   1.00
N2450  N     0.02778   0.25163   0.55085   0.03837  Uani   1.00
C2451  C     0.19301   0.49380   0.58035   0.04437  Uani   1.00
C2452  C     0.05177   0.25253   0.54393   0.05277  Uani   1.00
C2453  C     0.10943   0.25565   0.54278   0.06813  Uani   1.00
C2454  C     0.13528   0.25528   0.54270   0.07560  Uani   1.00
N2455  N     0.03314   0.25400   0.69873   0.03357  Uani   1.00
N2456  N     0.22221   0.49837   0.67585   0.03837  Uani   1.00
C2457  C     0.05699   0.25620   0.70535   0.04437  Uani   1.00
C2458  C     0.19823   0.49747   0.66893   0.05277  Uani   1.00
C2459  C     0.14057   0.49435   0.66778   0.06813  Uani   1.00
C2460  C     0.11472   0.49472   0.66770   0.07560  Uani   1.00
N2461  N     0.00400   0.46686   0.63623   0.03357  Uani   1.00
N2462  N     0.24837   0.27779   0.61335   0.03837  Uani   1.00
C2463  C     0.00620   0.44301   0.64285   0.04437  Uani   1.00
C2464  C     0.24748   0.30178   0.60643   0.05277  Uani   1.00
C2465  C     0.24435   0.35943   0.60528   0.06813  Uani   1.00
C2466  C     0.24473   0.38528   0.60520   0.07560  Uani   1.00
N2467  N     0.24600   0.28314   0.51123   0.03357  Uani   1.00
N2468  N     0.00163   0.47221   0.73835   0.03837  Uani   1.00
C2469  C     0.24380   0.30699   0.51785   0.04437  Uani   1.00
C2470  C     0.00253   0.44823   0.73143   0.05277  Uani   1.00
C2471  C     0.00565   0.39058   0.73028   0.06813  Uani   1.00
C2472  C     0.00528   0.36472   0.73020   0.07560  Uani   1.00
N2473  N     0.03314   0.49600   0.67627   0.03357  Uani   1.00
N2474  N     0.22221   0.25163   0.69915   0.03837  Uani   1.00
C2475  C     0.05699   0.49380   0.66965   0.04437  Uani   1.00
C2476  C     0.19823   0.25253   0.70608   0.05277  Uani   1.00
C2477  C     0.14057   0.25565   0.70723   0.06813  Uani   1.00
C2478  C     0.11472   0.25528   0.70730   0.07560  Uani   1.00
N2479  N     0.21686   0.25400   0.55127   0.03357  Uani   1.00
N2480  N     0.02778   0.49837   0.57415   0.03837  Uani   1.00
C2481  C     0.19301   0.25620   0.54465   0.04437  Uani   1.00
C2482  C     0.05177   0.49747   0.58108   0.05277  Uani   1.00
C2483  C     0.10943   0.49435   0.58223   0.06813  Uani   1.00
C2484  C     0.13528   0.49472   0.58230   0.07560  Uani   1.00
N2485  N     0.24600   0.46686   0.61377   0.03357  Uani   1.00
N2486  N     0.00163   0.27779   0.63665   0.03837  Uani   1.00
C2487  C     0.24380   0.44301   0.60715   0.04437  Uani   1.00
C2488  C     0.00253   0.30178   0.64358   0.05277  Uani   1.00
C2489  C     0.00565   0.35943   0.64473   0.06813  Uani   1.00
C2490  C     0.00528   0.38528   0.64480   0.07560  Uani   1.00
N2491  N     0.00400   0.28314   0.73877   0.03357  Uani   1.00
N2492  N     0.24837   0.47221   0.51165   0.03837  Uani   1.00
C2493  C     0.00620   0.30699   0.73215   0.04437  Uani   1.00
C2494  C     0.24748   0.44823   0.51858   0.05277  Uani   1.00
C2495  C     0.24435   0.39058   0.51973   0.06813  Uani   1.00
C2496  C     0.24473   0.36472   0.51980   0.07560  Uani   1.00
Co2497 Co    0.24721   0.49721   0.59375   0.02543  Uani   1.00
Co2498 Co    0.00279   0.25279   0.71875   0.02543  Uani   1.00
Co2499 Co    0.00279   0.49721   0.65625   0.02543  Uani   1.00
Co2500 Co    0.24721   0.25279   0.53125   0.02543  Uani   1.00
C2501  C     0.06790   0.25000   0.56250   0.04747  Uani   1.00
C2502  C     0.17678   0.25000   0.56250   0.04137  Uani   1.00
C2503  C     0.14888   0.25000   0.56250   0.05083  Uani   1.00
C2504  C     0.09598   0.25000   0.56250   0.05433  Uani   1.00
C2505  C     0.18210   0.25000   0.68750   0.04747  Uani   1.00
C2506  C     0.07322   0.25000   0.68750   0.04137  Uani   1.00
C2507  C     0.10112   0.25000   0.68750   0.05083  Uani   1.00
C2508  C     0.15402   0.25000   0.68750   0.05433  Uani   1.00
C2509  C     0.00000   0.31790   0.62500   0.04747  Uani   1.00
C2510  C     0.00000   0.42678   0.62500   0.04137  Uani   1.00
C2511  C     0.00000   0.39888   0.62500   0.05083  Uani   1.00
C2512  C     0.00000   0.34598   0.62500   0.05433  Uani   1.00
C2513  C     0.00000   0.43210   0.50000   0.04747  Uani   1.00
C2514  C     0.00000   0.32322   0.50000   0.04137  Uani   1.00
C2515  C     0.00000   0.35112   0.50000   0.05083  Uani   1.00
C2516  C     0.00000   0.40402   0.50000   0.05433  Uani   1.00
N2517  N     0.46686   0.49600   0.57373   0.03357  Uani   1.00
N2518  N     0.27778   0.25163   0.55085   0.03837  Uani   1.00
C2519  C     0.44301   0.49380   0.58035   0.04437  Uani   1.00
C2520  C     0.30177   0.25253   0.54393   0.05277  Uani   1.00
C2521  C     0.35943   0.25565   0.54278   0.06813  Uani   1.00
C2522  C     0.38528   0.25528   0.54270   0.07560  Uani   1.00
N2523  N     0.28314   0.25400   0.69873   0.03357  Uani   1.00
N2524  N     0.47222   0.49837   0.67585   0.03837  Uani   1.00
C2525  C     0.30699   0.25620   0.70535   0.04437  Uani   1.00
C2526  C     0.44822   0.49747   0.66893   0.05277  Uani   1.00
C2527  C     0.39057   0.49435   0.66778   0.06813  Uani   1.00
C2528  C     0.36472   0.49472   0.66770   0.07560  Uani   1.00
N2529  N     0.25400   0.46686   0.63623   0.03357  Uani   1.00
N2530  N     0.49838   0.27779   0.61335   0.03837  Uani   1.00
C2531  C     0.25620   0.44301   0.64285   0.04437  Uani   1.00
C2532  C     0.49748   0.30178   0.60643   0.05277  Uani   1.00
C2533  C     0.49435   0.35943   0.60528   0.06813  Uani   1.00
C2534  C     0.49473   0.38528   0.60520   0.07560  Uani   1.00
N2535  N     0.49600   0.28314   0.51123   0.03357  Uani   1.00
N2536  N     0.25163   0.47221   0.73835   0.03837  Uani   1.00
C2537  C     0.49380   0.30699   0.51785   0.04437  Uani   1.00
C2538  C     0.25253   0.44823   0.73143   0.05277  Uani   1.00
C2539  C     0.25565   0.39058   0.73028   0.06813  Uani   1.00
C2540  C     0.25528   0.36472   0.73020   0.07560  Uani   1.00
N2541  N     0.28314   0.49600   0.67627   0.03357  Uani   1.00
N2542  N     0.47222   0.25163   0.69915   0.03837  Uani   1.00
C2543  C     0.30699   0.49380   0.66965   0.04437  Uani   1.00
C2544  C     0.44822   0.25253   0.70608   0.05277  Uani   1.00
C2545  C     0.39057   0.25565   0.70723   0.06813  Uani   1.00
C2546  C     0.36472   0.25528   0.70730   0.07560  Uani   1.00
N2547  N     0.46686   0.25400   0.55127   0.03357  Uani   1.00
N2548  N     0.27778   0.49837   0.57415   0.03837  Uani   1.00
C2549  C     0.44301   0.25620   0.54465   0.04437  Uani   1.00
C2550  C     0.30177   0.49747   0.58108   0.05277  Uani   1.00
C2551  C     0.35943   0.49435   0.58223   0.06813  Uani   1.00
C2552  C     0.38528   0.49472   0.58230   0.07560  Uani   1.00
N2553  N     0.49600   0.46686   0.61377   0.03357  Uani   1.00
N2554  N     0.25163   0.27779   0.63665   0.03837  Uani   1.00
C2555  C     0.49380   0.44301   0.60715   0.04437  Uani   1.00
C2556  C     0.25253   0.30178   0.64358   0.05277  Uani   1.00
C2557  C     0.25565   0.35943   0.64473   0.06813  Uani   1.00
C2558  C     0.25528   0.38528   0.64480   0.07560  Uani   1.00
N2559  N     0.25400   0.28314   0.73877   0.03357  Uani   1.00
N2560  N     0.49838   0.47221   0.51165   0.03837  Uani   1.00
C2561  C     0.25620   0.30699   0.73215   0.04437  Uani   1.00
C2562  C     0.49748   0.44823   0.51858   0.05277  Uani   1.00
C2563  C     0.49435   0.39058   0.51973   0.06813  Uani   1.00
C2564  C     0.49473   0.36472   0.51980   0.07560  Uani   1.00
Co2565 Co    0.49721   0.49721   0.59375   0.02543  Uani   1.00
Co2566 Co    0.25279   0.25279   0.71875   0.02543  Uani   1.00
Co2567 Co    0.25279   0.49721   0.65625   0.02543  Uani   1.00
Co2568 Co    0.49721   0.25279   0.53125   0.02543  Uani   1.00
C2569  C     0.31790   0.25000   0.56250   0.04747  Uani   1.00
C2570  C     0.42678   0.25000   0.56250   0.04137  Uani   1.00
C2571  C     0.39888   0.25000   0.56250   0.05083  Uani   1.00
C2572  C     0.34598   0.25000   0.56250   0.05433  Uani   1.00
C2573  C     0.43210   0.25000   0.68750   0.04747  Uani   1.00
C2574  C     0.32322   0.25000   0.68750   0.04137  Uani   1.00
C2575  C     0.35112   0.25000   0.68750   0.05083  Uani   1.00
C2576  C     0.40403   0.25000   0.68750   0.05433  Uani   1.00
C2577  C     0.25000   0.31790   0.62500   0.04747  Uani   1.00
C2578  C     0.25000   0.42678   0.62500   0.04137  Uani   1.00
C2579  C     0.25000   0.39888   0.62500   0.05083  Uani   1.00
C2580  C     0.25000   0.34598   0.62500   0.05433  Uani   1.00
C2581  C     0.25000   0.43210   0.50000   0.04747  Uani   1.00
C2582  C     0.25000   0.32322   0.50000   0.04137  Uani   1.00
C2583  C     0.25000   0.35112   0.50000   0.05083  Uani   1.00
C2584  C     0.25000   0.40402   0.50000   0.05433  Uani   1.00
N2585  N     0.71686   0.49600   0.57373   0.03357  Uani   1.00
N2586  N     0.52779   0.25163   0.55085   0.03837  Uani   1.00
C2587  C     0.69301   0.49380   0.58035   0.04437  Uani   1.00
C2588  C     0.55178   0.25253   0.54393   0.05277  Uani   1.00
C2589  C     0.60943   0.25565   0.54278   0.06813  Uani   1.00
C2590  C     0.63528   0.25528   0.54270   0.07560  Uani   1.00
N2591  N     0.53314   0.25400   0.69873   0.03357  Uani   1.00
N2592  N     0.72222   0.49837   0.67585   0.03837  Uani   1.00
C2593  C     0.55699   0.25620   0.70535   0.04437  Uani   1.00
C2594  C     0.69823   0.49747   0.66893   0.05277  Uani   1.00
C2595  C     0.64058   0.49435   0.66778   0.06813  Uani   1.00
C2596  C     0.61473   0.49472   0.66770   0.07560  Uani   1.00
N2597  N     0.50400   0.46686   0.63623   0.03357  Uani   1.00
N2598  N     0.74837   0.27779   0.61335   0.03837  Uani   1.00
C2599  C     0.50620   0.44301   0.64285   0.04437  Uani   1.00
C2600  C     0.74748   0.30178   0.60643   0.05277  Uani   1.00
C2601  C     0.74435   0.35943   0.60528   0.06813  Uani   1.00
C2602  C     0.74473   0.38528   0.60520   0.07560  Uani   1.00
N2603  N     0.74600   0.28314   0.51123   0.03357  Uani   1.00
N2604  N     0.50163   0.47221   0.73835   0.03837  Uani   1.00
C2605  C     0.74380   0.30699   0.51785   0.04437  Uani   1.00
C2606  C     0.50253   0.44823   0.73143   0.05277  Uani   1.00
C2607  C     0.50565   0.39058   0.73028   0.06813  Uani   1.00
C2608  C     0.50528   0.36472   0.73020   0.07560  Uani   1.00
N2609  N     0.53314   0.49600   0.67627   0.03357  Uani   1.00
N2610  N     0.72222   0.25163   0.69915   0.03837  Uani   1.00
C2611  C     0.55699   0.49380   0.66965   0.04437  Uani   1.00
C2612  C     0.69823   0.25253   0.70608   0.05277  Uani   1.00
C2613  C     0.64058   0.25565   0.70723   0.06813  Uani   1.00
C2614  C     0.61473   0.25528   0.70730   0.07560  Uani   1.00
N2615  N     0.71686   0.25400   0.55127   0.03357  Uani   1.00
N2616  N     0.52779   0.49837   0.57415   0.03837  Uani   1.00
C2617  C     0.69301   0.25620   0.54465   0.04437  Uani   1.00
C2618  C     0.55178   0.49747   0.58108   0.05277  Uani   1.00
C2619  C     0.60943   0.49435   0.58223   0.06813  Uani   1.00
C2620  C     0.63528   0.49472   0.58230   0.07560  Uani   1.00
N2621  N     0.74600   0.46686   0.61377   0.03357  Uani   1.00
N2622  N     0.50163   0.27779   0.63665   0.03837  Uani   1.00
C2623  C     0.74380   0.44301   0.60715   0.04437  Uani   1.00
C2624  C     0.50253   0.30178   0.64358   0.05277  Uani   1.00
C2625  C     0.50565   0.35943   0.64473   0.06813  Uani   1.00
C2626  C     0.50528   0.38528   0.64480   0.07560  Uani   1.00
N2627  N     0.50400   0.28314   0.73877   0.03357  Uani   1.00
N2628  N     0.74837   0.47221   0.51165   0.03837  Uani   1.00
C2629  C     0.50620   0.30699   0.73215   0.04437  Uani   1.00
C2630  C     0.74748   0.44823   0.51858   0.05277  Uani   1.00
C2631  C     0.74435   0.39058   0.51973   0.06813  Uani   1.00
C2632  C     0.74473   0.36472   0.51980   0.07560  Uani   1.00
Co2633 Co    0.74721   0.49721   0.59375   0.02543  Uani   1.00
Co2634 Co    0.50279   0.25279   0.71875   0.02543  Uani   1.00
Co2635 Co    0.50279   0.49721   0.65625   0.02543  Uani   1.00
Co2636 Co    0.74721   0.25279   0.53125   0.02543  Uani   1.00
C2637  C     0.56790   0.25000   0.56250   0.04747  Uani   1.00
C2638  C     0.67678   0.25000   0.56250   0.04137  Uani   1.00
C2639  C     0.64888   0.25000   0.56250   0.05083  Uani   1.00
C2640  C     0.59598   0.25000   0.56250   0.05433  Uani   1.00
C2641  C     0.68210   0.25000   0.68750   0.04747  Uani   1.00
C2642  C     0.57322   0.25000   0.68750   0.04137  Uani   1.00
C2643  C     0.60112   0.25000   0.68750   0.05083  Uani   1.00
C2644  C     0.65402   0.25000   0.68750   0.05433  Uani   1.00
C2645  C     0.50000   0.31790   0.62500   0.04747  Uani   1.00
C2646  C     0.50000   0.42678   0.62500   0.04137  Uani   1.00
C2647  C     0.50000   0.39888   0.62500   0.05083  Uani   1.00
C2648  C     0.50000   0.34598   0.62500   0.05433  Uani   1.00
C2649  C     0.50000   0.43210   0.50000   0.04747  Uani   1.00
C2650  C     0.50000   0.32322   0.50000   0.04137  Uani   1.00
C2651  C     0.50000   0.35112   0.50000   0.05083  Uani   1.00
C2652  C     0.50000   0.40402   0.50000   0.05433  Uani   1.00
N2653  N     0.96686   0.49600   0.57373   0.03357  Uani   1.00
N2654  N     0.77779   0.25163   0.55085   0.03837  Uani   1.00
C2655  C     0.94301   0.49380   0.58035   0.04437  Uani   1.00
C2656  C     0.80178   0.25253   0.54393   0.05277  Uani   1.00
C2657  C     0.85943   0.25565   0.54278   0.06813  Uani   1.00
C2658  C     0.88528   0.25528   0.54270   0.07560  Uani   1.00
N2659  N     0.78314   0.25400   0.69873   0.03357  Uani   1.00
N2660  N     0.97222   0.49837   0.67585   0.03837  Uani   1.00
C2661  C     0.80699   0.25620   0.70535   0.04437  Uani   1.00
C2662  C     0.94823   0.49747   0.66893   0.05277  Uani   1.00
C2663  C     0.89058   0.49435   0.66778   0.06813  Uani   1.00
C2664  C     0.86472   0.49472   0.66770   0.07560  Uani   1.00
N2665  N     0.75400   0.46686   0.63623   0.03357  Uani   1.00
N2666  N     0.99838   0.27779   0.61335   0.03837  Uani   1.00
C2667  C     0.75620   0.44301   0.64285   0.04437  Uani   1.00
C2668  C     0.99748   0.30178   0.60643   0.05277  Uani   1.00
C2669  C     0.99435   0.35943   0.60528   0.06813  Uani   1.00
C2670  C     0.99473   0.38528   0.60520   0.07560  Uani   1.00
N2671  N     0.99600   0.28314   0.51123   0.03357  Uani   1.00
N2672  N     0.75163   0.47221   0.73835   0.03837  Uani   1.00
C2673  C     0.99380   0.30699   0.51785   0.04437  Uani   1.00
C2674  C     0.75253   0.44823   0.73143   0.05277  Uani   1.00
C2675  C     0.75565   0.39058   0.73028   0.06813  Uani   1.00
C2676  C     0.75528   0.36472   0.73020   0.07560  Uani   1.00
N2677  N     0.78314   0.49600   0.67627   0.03357  Uani   1.00
N2678  N     0.97222   0.25163   0.69915   0.03837  Uani   1.00
C2679  C     0.80699   0.49380   0.66965   0.04437  Uani   1.00
C2680  C     0.94823   0.25253   0.70608   0.05277  Uani   1.00
C2681  C     0.89058   0.25565   0.70723   0.06813  Uani   1.00
C2682  C     0.86472   0.25528   0.70730   0.07560  Uani   1.00
N2683  N     0.96686   0.25400   0.55127   0.03357  Uani   1.00
N2684  N     0.77779   0.49837   0.57415   0.03837  Uani   1.00
C2685  C     0.94301   0.25620   0.54465   0.04437  Uani   1.00
C2686  C     0.80178   0.49747   0.58108   0.05277  Uani   1.00
C2687  C     0.85943   0.49435   0.58223   0.06813  Uani   1.00
C2688  C     0.88528   0.49472   0.58230   0.07560  Uani   1.00
N2689  N     0.99600   0.46686   0.61377   0.03357  Uani   1.00
N2690  N     0.75163   0.27779   0.63665   0.03837  Uani   1.00
C2691  C     0.99380   0.44301   0.60715   0.04437  Uani   1.00
C2692  C     0.75253   0.30178   0.64358   0.05277  Uani   1.00
C2693  C     0.75565   0.35943   0.64473   0.06813  Uani   1.00
C2694  C     0.75528   0.38528   0.64480   0.07560  Uani   1.00
N2695  N     0.75400   0.28314   0.73877   0.03357  Uani   1.00
N2696  N     0.99838   0.47221   0.51165   0.03837  Uani   1.00
C2697  C     0.75620   0.30699   0.73215   0.04437  Uani   1.00
C2698  C     0.99748   0.44823   0.51858   0.05277  Uani   1.00
C2699  C     0.99435   0.39058   0.51973   0.06813  Uani   1.00
C2700  C     0.99473   0.36472   0.51980   0.07560  Uani   1.00
Co2701 Co    0.99721   0.49721   0.59375   0.02543  Uani   1.00
Co2702 Co    0.75279   0.25279   0.71875   0.02543  Uani   1.00
Co2703 Co    0.75279   0.49721   0.65625   0.02543  Uani   1.00
Co2704 Co    0.99721   0.25279   0.53125   0.02543  Uani   1.00
C2705  C     0.81790   0.25000   0.56250   0.04747  Uani   1.00
C2706  C     0.92678   0.25000   0.56250   0.04137  Uani   1.00
C2707  C     0.89888   0.25000   0.56250   0.05083  Uani   1.00
C2708  C     0.84598   0.25000   0.56250   0.05433  Uani   1.00
C2709  C     0.93210   0.25000   0.68750   0.04747  Uani   1.00
C2710  C     0.82322   0.25000   0.68750   0.04137  Uani   1.00
C2711  C     0.85113   0.25000   0.68750   0.05083  Uani   1.00
C2712  C     0.90403   0.25000   0.68750   0.05433  Uani   1.00
C2713  C     0.75000   0.31790   0.62500   0.04747  Uani   1.00
C2714  C     0.75000   0.42678   0.62500   0.04137  Uani   1.00
C2715  C     0.75000   0.39888   0.62500   0.05083  Uani   1.00
C2716  C     0.75000   0.34598   0.62500   0.05433  Uani   1.00
C2717  C     0.75000   0.43210   0.50000   0.04747  Uani   1.00
C2718  C     0.75000   0.32322   0.50000   0.04137  Uani   1.00
C2719  C     0.75000   0.35112   0.50000   0.05083  Uani   1.00
C2720  C     0.75000   0.40402   0.50000   0.05433  Uani   1.00
N2721  N     0.21686   0.74600   0.57373   0.03357  Uani   1.00
N2722  N     0.02778   0.50163   0.55085   0.03837  Uani   1.00
C2723  C     0.19301   0.74380   0.58035   0.04437  Uani   1.00
C2724  C     0.05177   0.50253   0.54393   0.05277  Uani   1.00
C2725  C     0.10943   0.50565   0.54278   0.06813  Uani   1.00
C2726  C     0.13528   0.50528   0.54270   0.07560  Uani   1.00
N2727  N     0.03314   0.50400   0.69873   0.03357  Uani   1.00
N2728  N     0.22221   0.74837   0.67585   0.03837  Uani   1.00
C2729  C     0.05699   0.50620   0.70535   0.04437  Uani   1.00
C2730  C     0.19823   0.74747   0.66893   0.05277  Uani   1.00
C2731  C     0.14057   0.74435   0.66778   0.06813  Uani   1.00
C2732  C     0.11472   0.74472   0.66770   0.07560  Uani   1.00
N2733  N     0.00400   0.71686   0.63623   0.03357  Uani   1.00
N2734  N     0.24837   0.52779   0.61335   0.03837  Uani   1.00
C2735  C     0.00620   0.69301   0.64285   0.04437  Uani   1.00
C2736  C     0.24748   0.55178   0.60643   0.05277  Uani   1.00
C2737  C     0.24435   0.60943   0.60528   0.06813  Uani   1.00
C2738  C     0.24473   0.63528   0.60520   0.07560  Uani   1.00
N2739  N     0.24600   0.53314   0.51123   0.03357  Uani   1.00
N2740  N     0.00163   0.72221   0.73835   0.03837  Uani   1.00
C2741  C     0.24380   0.55699   0.51785   0.04437  Uani   1.00
C2742  C     0.00253   0.69823   0.73143   0.05277  Uani   1.00
C2743  C     0.00565   0.64058   0.73028   0.06813  Uani   1.00
C2744  C     0.00528   0.61472   0.73020   0.07560  Uani   1.00
N2745  N     0.03314   0.74600   0.67627   0.03357  Uani   1.00
N2746  N     0.22221   0.50163   0.69915   0.03837  Uani   1.00
C2747  C     0.05699   0.74380   0.66965   0.04437  Uani   1.00
C2748  C     0.19823   0.50253   0.70608   0.05277  Uani   1.00
C2749  C     0.14057   0.50565   0.70723   0.06813  Uani   1.00
C2750  C     0.11472   0.50528   0.70730   0.07560  Uani   1.00
N2751  N     0.21686   0.50400   0.55127   0.03357  Uani   1.00
N2752  N     0.02778   0.74837   0.57415   0.03837  Uani   1.00
C2753  C     0.19301   0.50620   0.54465   0.04437  Uani   1.00
C2754  C     0.05177   0.74747   0.58108   0.05277  Uani   1.00
C2755  C     0.10943   0.74435   0.58223   0.06813  Uani   1.00
C2756  C     0.13528   0.74472   0.58230   0.07560  Uani   1.00
N2757  N     0.24600   0.71686   0.61377   0.03357  Uani   1.00
N2758  N     0.00163   0.52779   0.63665   0.03837  Uani   1.00
C2759  C     0.24380   0.69301   0.60715   0.04437  Uani   1.00
C2760  C     0.00253   0.55178   0.64358   0.05277  Uani   1.00
C2761  C     0.00565   0.60943   0.64473   0.06813  Uani   1.00
C2762  C     0.00528   0.63528   0.64480   0.07560  Uani   1.00
N2763  N     0.00400   0.53314   0.73877   0.03357  Uani   1.00
N2764  N     0.24837   0.72221   0.51165   0.03837  Uani   1.00
C2765  C     0.00620   0.55699   0.73215   0.04437  Uani   1.00
C2766  C     0.24748   0.69823   0.51858   0.05277  Uani   1.00
C2767  C     0.24435   0.64058   0.51973   0.06813  Uani   1.00
C2768  C     0.24473   0.61472   0.51980   0.07560  Uani   1.00
Co2769 Co    0.24721   0.74721   0.59375   0.02543  Uani   1.00
Co2770 Co    0.00279   0.50279   0.71875   0.02543  Uani   1.00
Co2771 Co    0.00279   0.74721   0.65625   0.02543  Uani   1.00
Co2772 Co    0.24721   0.50279   0.53125   0.02543  Uani   1.00
C2773  C     0.06790   0.50000   0.56250   0.04747  Uani   1.00
C2774  C     0.17678   0.50000   0.56250   0.04137  Uani   1.00
C2775  C     0.14888   0.50000   0.56250   0.05083  Uani   1.00
C2776  C     0.09598   0.50000   0.56250   0.05433  Uani   1.00
C2777  C     0.18210   0.50000   0.68750   0.04747  Uani   1.00
C2778  C     0.07322   0.50000   0.68750   0.04137  Uani   1.00
C2779  C     0.10112   0.50000   0.68750   0.05083  Uani   1.00
C2780  C     0.15402   0.50000   0.68750   0.05433  Uani   1.00
C2781  C     0.00000   0.56790   0.62500   0.04747  Uani   1.00
C2782  C     0.00000   0.67678   0.62500   0.04137  Uani   1.00
C2783  C     0.00000   0.64888   0.62500   0.05083  Uani   1.00
C2784  C     0.00000   0.59598   0.62500   0.05433  Uani   1.00
C2785  C     0.00000   0.68210   0.50000   0.04747  Uani   1.00
C2786  C     0.00000   0.57322   0.50000   0.04137  Uani   1.00
C2787  C     0.00000   0.60112   0.50000   0.05083  Uani   1.00
C2788  C     0.00000   0.65402   0.50000   0.05433  Uani   1.00
N2789  N     0.46686   0.74600   0.57373   0.03357  Uani   1.00
N2790  N     0.27778   0.50163   0.55085   0.03837  Uani   1.00
C2791  C     0.44301   0.74380   0.58035   0.04437  Uani   1.00
C2792  C     0.30177   0.50253   0.54393   0.05277  Uani   1.00
C2793  C     0.35943   0.50565   0.54278   0.06813  Uani   1.00
C2794  C     0.38528   0.50528   0.54270   0.07560  Uani   1.00
N2795  N     0.28314   0.50400   0.69873   0.03357  Uani   1.00
N2796  N     0.47222   0.74837   0.67585   0.03837  Uani   1.00
C2797  C     0.30699   0.50620   0.70535   0.04437  Uani   1.00
C2798  C     0.44822   0.74747   0.66893   0.05277  Uani   1.00
C2799  C     0.39057   0.74435   0.66778   0.06813  Uani   1.00
C2800  C     0.36472   0.74472   0.66770   0.07560  Uani   1.00
N2801  N     0.25400   0.71686   0.63623   0.03357  Uani   1.00
N2802  N     0.49838   0.52779   0.61335   0.03837  Uani   1.00
C2803  C     0.25620   0.69301   0.64285   0.04437  Uani   1.00
C2804  C     0.49748   0.55178   0.60643   0.05277  Uani   1.00
C2805  C     0.49435   0.60943   0.60528   0.06813  Uani   1.00
C2806  C     0.49473   0.63528   0.60520   0.07560  Uani   1.00
N2807  N     0.49600   0.53314   0.51123   0.03357  Uani   1.00
N2808  N     0.25163   0.72221   0.73835   0.03837  Uani   1.00
C2809  C     0.49380   0.55699   0.51785   0.04437  Uani   1.00
C2810  C     0.25253   0.69823   0.73143   0.05277  Uani   1.00
C2811  C     0.25565   0.64058   0.73028   0.06813  Uani   1.00
C2812  C     0.25528   0.61472   0.73020   0.07560  Uani   1.00
N2813  N     0.28314   0.74600   0.67627   0.03357  Uani   1.00
N2814  N     0.47222   0.50163   0.69915   0.03837  Uani   1.00
C2815  C     0.30699   0.74380   0.66965   0.04437  Uani   1.00
C2816  C     0.44822   0.50253   0.70608   0.05277  Uani   1.00
C2817  C     0.39057   0.50565   0.70723   0.06813  Uani   1.00
C2818  C     0.36472   0.50528   0.70730   0.07560  Uani   1.00
N2819  N     0.46686   0.50400   0.55127   0.03357  Uani   1.00
N2820  N     0.27778   0.74837   0.57415   0.03837  Uani   1.00
C2821  C     0.44301   0.50620   0.54465   0.04437  Uani   1.00
C2822  C     0.30177   0.74747   0.58108   0.05277  Uani   1.00
C2823  C     0.35943   0.74435   0.58223   0.06813  Uani   1.00
C2824  C     0.38528   0.74472   0.58230   0.07560  Uani   1.00
N2825  N     0.49600   0.71686   0.61377   0.03357  Uani   1.00
N2826  N     0.25163   0.52779   0.63665   0.03837  Uani   1.00
C2827  C     0.49380   0.69301   0.60715   0.04437  Uani   1.00
C2828  C     0.25253   0.55178   0.64358   0.05277  Uani   1.00
C2829  C     0.25565   0.60943   0.64473   0.06813  Uani   1.00
C2830  C     0.25528   0.63528   0.64480   0.07560  Uani   1.00
N2831  N     0.25400   0.53314   0.73877   0.03357  Uani   1.00
N2832  N     0.49838   0.72221   0.51165   0.03837  Uani   1.00
C2833  C     0.25620   0.55699   0.73215   0.04437  Uani   1.00
C2834  C     0.49748   0.69823   0.51858   0.05277  Uani   1.00
C2835  C     0.49435   0.64058   0.51973   0.06813  Uani   1.00
C2836  C     0.49473   0.61472   0.51980   0.07560  Uani   1.00
Co2837 Co    0.49721   0.74721   0.59375   0.02543  Uani   1.00
Co2838 Co    0.25279   0.50279   0.71875   0.02543  Uani   1.00
Co2839 Co    0.25279   0.74721   0.65625   0.02543  Uani   1.00
Co2840 Co    0.49721   0.50279   0.53125   0.02543  Uani   1.00
C2841  C     0.31790   0.50000   0.56250   0.04747  Uani   1.00
C2842  C     0.42678   0.50000   0.56250   0.04137  Uani   1.00
C2843  C     0.39888   0.50000   0.56250   0.05083  Uani   1.00
C2844  C     0.34598   0.50000   0.56250   0.05433  Uani   1.00
C2845  C     0.43210   0.50000   0.68750   0.04747  Uani   1.00
C2846  C     0.32322   0.50000   0.68750   0.04137  Uani   1.00
C2847  C     0.35112   0.50000   0.68750   0.05083  Uani   1.00
C2848  C     0.40403   0.50000   0.68750   0.05433  Uani   1.00
C2849  C     0.25000   0.56790   0.62500   0.04747  Uani   1.00
C2850  C     0.25000   0.67678   0.62500   0.04137  Uani   1.00
C2851  C     0.25000   0.64888   0.62500   0.05083  Uani   1.00
C2852  C     0.25000   0.59598   0.62500   0.05433  Uani   1.00
C2853  C     0.25000   0.68210   0.50000   0.04747  Uani   1.00
C2854  C     0.25000   0.57322   0.50000   0.04137  Uani   1.00
C2855  C     0.25000   0.60112   0.50000   0.05083  Uani   1.00
C2856  C     0.25000   0.65402   0.50000   0.05433  Uani   1.00
N2857  N     0.71686   0.74600   0.57373   0.03357  Uani   1.00
N2858  N     0.52779   0.50163   0.55085   0.03837  Uani   1.00
C2859  C     0.69301   0.74380   0.58035   0.04437  Uani   1.00
C2860  C     0.55178   0.50253   0.54393   0.05277  Uani   1.00
C2861  C     0.60943   0.50565   0.54278   0.06813  Uani   1.00
C2862  C     0.63528   0.50528   0.54270   0.07560  Uani   1.00
N2863  N     0.53314   0.50400   0.69873   0.03357  Uani   1.00
N2864  N     0.72222   0.74837   0.67585   0.03837  Uani   1.00
C2865  C     0.55699   0.50620   0.70535   0.04437  Uani   1.00
C2866  C     0.69823   0.74747   0.66893   0.05277  Uani   1.00
C2867  C     0.64058   0.74435   0.66778   0.06813  Uani   1.00
C2868  C     0.61473   0.74472   0.66770   0.07560  Uani   1.00
N2869  N     0.50400   0.71686   0.63623   0.03357  Uani   1.00
N2870  N     0.74837   0.52779   0.61335   0.03837  Uani   1.00
C2871  C     0.50620   0.69301   0.64285   0.04437  Uani   1.00
C2872  C     0.74748   0.55178   0.60643   0.05277  Uani   1.00
C2873  C     0.74435   0.60943   0.60528   0.06813  Uani   1.00
C2874  C     0.74473   0.63528   0.60520   0.07560  Uani   1.00
N2875  N     0.74600   0.53314   0.51123   0.03357  Uani   1.00
N2876  N     0.50163   0.72221   0.73835   0.03837  Uani   1.00
C2877  C     0.74380   0.55699   0.51785   0.04437  Uani   1.00
C2878  C     0.50253   0.69823   0.73143   0.05277  Uani   1.00
C2879  C     0.50565   0.64058   0.73028   0.06813  Uani   1.00
C2880  C     0.50528   0.61472   0.73020   0.07560  Uani   1.00
N2881  N     0.53314   0.74600   0.67627   0.03357  Uani   1.00
N2882  N     0.72222   0.50163   0.69915   0.03837  Uani   1.00
C2883  C     0.55699   0.74380   0.66965   0.04437  Uani   1.00
C2884  C     0.69823   0.50253   0.70608   0.05277  Uani   1.00
C2885  C     0.64058   0.50565   0.70723   0.06813  Uani   1.00
C2886  C     0.61473   0.50528   0.70730   0.07560  Uani   1.00
N2887  N     0.71686   0.50400   0.55127   0.03357  Uani   1.00
N2888  N     0.52779   0.74837   0.57415   0.03837  Uani   1.00
C2889  C     0.69301   0.50620   0.54465   0.04437  Uani   1.00
C2890  C     0.55178   0.74747   0.58108   0.05277  Uani   1.00
C2891  C     0.60943   0.74435   0.58223   0.06813  Uani   1.00
C2892  C     0.63528   0.74472   0.58230   0.07560  Uani   1.00
N2893  N     0.74600   0.71686   0.61377   0.03357  Uani   1.00
N2894  N     0.50163   0.52779   0.63665   0.03837  Uani   1.00
C2895  C     0.74380   0.69301   0.60715   0.04437  Uani   1.00
C2896  C     0.50253   0.55178   0.64358   0.05277  Uani   1.00
C2897  C     0.50565   0.60943   0.64473   0.06813  Uani   1.00
C2898  C     0.50528   0.63528   0.64480   0.07560  Uani   1.00
N2899  N     0.50400   0.53314   0.73877   0.03357  Uani   1.00
N2900  N     0.74837   0.72221   0.51165   0.03837  Uani   1.00
C2901  C     0.50620   0.55699   0.73215   0.04437  Uani   1.00
C2902  C     0.74748   0.69823   0.51858   0.05277  Uani   1.00
C2903  C     0.74435   0.64058   0.51973   0.06813  Uani   1.00
C2904  C     0.74473   0.61472   0.51980   0.07560  Uani   1.00
Co2905 Co    0.74721   0.74721   0.59375   0.02543  Uani   1.00
Co2906 Co    0.50279   0.50279   0.71875   0.02543  Uani   1.00
Co2907 Co    0.50279   0.74721   0.65625   0.02543  Uani   1.00
Co2908 Co    0.74721   0.50279   0.53125   0.02543  Uani   1.00
C2909  C     0.56790   0.50000   0.56250   0.04747  Uani   1.00
C2910  C     0.67678   0.50000   0.56250   0.04137  Uani   1.00
C2911  C     0.64888   0.50000   0.56250   0.05083  Uani   1.00
C2912  C     0.59598   0.50000   0.56250   0.05433  Uani   1.00
C2913  C     0.68210   0.50000   0.68750   0.04747  Uani   1.00
C2914  C     0.57322   0.50000   0.68750   0.04137  Uani   1.00
C2915  C     0.60112   0.50000   0.68750   0.05083  Uani   1.00
C2916  C     0.65402   0.50000   0.68750   0.05433  Uani   1.00
C2917  C     0.50000   0.56790   0.62500   0.04747  Uani   1.00
C2918  C     0.50000   0.67678   0.62500   0.04137  Uani   1.00
C2919  C     0.50000   0.64888   0.62500   0.05083  Uani   1.00
C2920  C     0.50000   0.59598   0.62500   0.05433  Uani   1.00
C2921  C     0.50000   0.68210   0.50000   0.04747  Uani   1.00
C2922  C     0.50000   0.57322   0.50000   0.04137  Uani   1.00
C2923  C     0.50000   0.60112   0.50000   0.05083  Uani   1.00
C2924  C     0.50000   0.65402   0.50000   0.05433  Uani   1.00
N2925  N     0.96686   0.74600   0.57373   0.03357  Uani   1.00
N2926  N     0.77779   0.50163   0.55085   0.03837  Uani   1.00
C2927  C     0.94301   0.74380   0.58035   0.04437  Uani   1.00
C2928  C     0.80178   0.50253   0.54393   0.05277  Uani   1.00
C2929  C     0.85943   0.50565   0.54278   0.06813  Uani   1.00
C2930  C     0.88528   0.50528   0.54270   0.07560  Uani   1.00
N2931  N     0.78314   0.50400   0.69873   0.03357  Uani   1.00
N2932  N     0.97222   0.74837   0.67585   0.03837  Uani   1.00
C2933  C     0.80699   0.50620   0.70535   0.04437  Uani   1.00
C2934  C     0.94823   0.74747   0.66893   0.05277  Uani   1.00
C2935  C     0.89058   0.74435   0.66778   0.06813  Uani   1.00
C2936  C     0.86472   0.74472   0.66770   0.07560  Uani   1.00
N2937  N     0.75400   0.71686   0.63623   0.03357  Uani   1.00
N2938  N     0.99838   0.52779   0.61335   0.03837  Uani   1.00
C2939  C     0.75620   0.69301   0.64285   0.04437  Uani   1.00
C2940  C     0.99748   0.55178   0.60643   0.05277  Uani   1.00
C2941  C     0.99435   0.60943   0.60528   0.06813  Uani   1.00
C2942  C     0.99473   0.63528   0.60520   0.07560  Uani   1.00
N2943  N     0.99600   0.53314   0.51123   0.03357  Uani   1.00
N2944  N     0.75163   0.72221   0.73835   0.03837  Uani   1.00
C2945  C     0.99380   0.55699   0.51785   0.04437  Uani   1.00
C2946  C     0.75253   0.69823   0.73143   0.05277  Uani   1.00
C2947  C     0.75565   0.64058   0.73028   0.06813  Uani   1.00
C2948  C     0.75528   0.61472   0.73020   0.07560  Uani   1.00
N2949  N     0.78314   0.74600   0.67627   0.03357  Uani   1.00
N2950  N     0.97222   0.50163   0.69915   0.03837  Uani   1.00
C2951  C     0.80699   0.74380   0.66965   0.04437  Uani   1.00
C2952  C     0.94823   0.50253   0.70608   0.05277  Uani   1.00
C2953  C     0.89058   0.50565   0.70723   0.06813  Uani   1.00
C2954  C     0.86472   0.50528   0.70730   0.07560  Uani   1.00
N2955  N     0.96686   0.50400   0.55127   0.03357  Uani   1.00
N2956  N     0.77779   0.74837   0.57415   0.03837  Uani   1.00
C2957  C     0.94301   0.50620   0.54465   0.04437  Uani   1.00
C2958  C     0.80178   0.74747   0.58108   0.05277  Uani   1.00
C2959  C     0.85943   0.74435   0.58223   0.06813  Uani   1.00
C2960  C     0.88528   0.74472   0.58230   0.07560  Uani   1.00
N2961  N     0.99600   0.71686   0.61377   0.03357  Uani   1.00
N2962  N     0.75163   0.52779   0.63665   0.03837  Uani   1.00
C2963  C     0.99380   0.69301   0.60715   0.04437  Uani   1.00
C2964  C     0.75253   0.55178   0.64358   0.05277  Uani   1.00
C2965  C     0.75565   0.60943   0.64473   0.06813  Uani   1.00
C2966  C     0.75528   0.63528   0.64480   0.07560  Uani   1.00
N2967  N     0.75400   0.53314   0.73877   0.03357  Uani   1.00
N2968  N     0.99838   0.72221   0.51165   0.03837  Uani   1.00
C2969  C     0.75620   0.55699   0.73215   0.04437  Uani   1.00
C2970  C     0.99748   0.69823   0.51858   0.05277  Uani   1.00
C2971  C     0.99435   0.64058   0.51973   0.06813  Uani   1.00
C2972  C     0.99473   0.61472   0.51980   0.07560  Uani   1.00
Co2973 Co    0.99721   0.74721   0.59375   0.02543  Uani   1.00
Co2974 Co    0.75279   0.50279   0.71875   0.02543  Uani   1.00
Co2975 Co    0.75279   0.74721   0.65625   0.02543  Uani   1.00
Co2976 Co    0.99721   0.50279   0.53125   0.02543  Uani   1.00
C2977  C     0.81790   0.50000   0.56250   0.04747  Uani   1.00
C2978  C     0.92678   0.50000   0.56250   0.04137  Uani   1.00
C2979  C     0.89888   0.50000   0.56250   0.05083  Uani   1.00
C2980  C     0.84598   0.50000   0.56250   0.05433  Uani   1.00
C2981  C     0.93210   0.50000   0.68750   0.04747  Uani   1.00
C2982  C     0.82322   0.50000   0.68750   0.04137  Uani   1.00
C2983  C     0.85113   0.50000   0.68750   0.05083  Uani   1.00
C2984  C     0.90403   0.50000   0.68750   0.05433  Uani   1.00
C2985  C     0.75000   0.56790   0.62500   0.04747  Uani   1.00
C2986  C     0.75000   0.67678   0.62500   0.04137  Uani   1.00
C2987  C     0.75000   0.64888   0.62500   0.05083  Uani   1.00
C2988  C     0.75000   0.59598   0.62500   0.05433  Uani   1.00
C2989  C     0.75000   0.68210   0.50000   0.04747  Uani   1.00
C2990  C     0.75000   0.57322   0.50000   0.04137  Uani   1.00
C2991  C     0.75000   0.60112   0.50000   0.05083  Uani   1.00
C2992  C     0.75000   0.65402   0.50000   0.05433  Uani   1.00
N2993  N     0.21686   0.99600   0.57373   0.03357  Uani   1.00
N2994  N     0.02778   0.75163   0.55085   0.03837  Uani   1.00
C2995  C     0.19301   0.99380   0.58035   0.04437  Uani   1.00
C2996  C     0.05177   0.75253   0.54393   0.05277  Uani   1.00
C2997  C     0.10943   0.75565   0.54278   0.06813  Uani   1.00
C2998  C     0.13528   0.75528   0.54270   0.07560  Uani   1.00
N2999  N     0.03314   0.75400   0.69873   0.03357  Uani   1.00
N3000  N     0.22221   0.99837   0.67585   0.03837  Uani   1.00
C3001  C     0.05699   0.75620   0.70535   0.04437  Uani   1.00
C3002  C     0.19823   0.99747   0.66893   0.05277  Uani   1.00
C3003  C     0.14057   0.99435   0.66778   0.06813  Uani   1.00
C3004  C     0.11472   0.99473   0.66770   0.07560  Uani   1.00
N3005  N     0.00400   0.96686   0.63623   0.03357  Uani   1.00
N3006  N     0.24837   0.77779   0.61335   0.03837  Uani   1.00
C3007  C     0.00620   0.94301   0.64285   0.04437  Uani   1.00
C3008  C     0.24748   0.80178   0.60643   0.05277  Uani   1.00
C3009  C     0.24435   0.85943   0.60528   0.06813  Uani   1.00
C3010  C     0.24473   0.88528   0.60520   0.07560  Uani   1.00
N3011  N     0.24600   0.78314   0.51123   0.03357  Uani   1.00
N3012  N     0.00163   0.97221   0.73835   0.03837  Uani   1.00
C3013  C     0.24380   0.80699   0.51785   0.04437  Uani   1.00
C3014  C     0.00253   0.94823   0.73143   0.05277  Uani   1.00
C3015  C     0.00565   0.89058   0.73028   0.06813  Uani   1.00
C3016  C     0.00528   0.86472   0.73020   0.07560  Uani   1.00
N3017  N     0.03314   0.99600   0.67627   0.03357  Uani   1.00
N3018  N     0.22221   0.75163   0.69915   0.03837  Uani   1.00
C3019  C     0.05699   0.99380   0.66965   0.04437  Uani   1.00
C3020  C     0.19823   0.75253   0.70608   0.05277  Uani   1.00
C3021  C     0.14057   0.75565   0.70723   0.06813  Uani   1.00
C3022  C     0.11472   0.75528   0.70730   0.07560  Uani   1.00
N3023  N     0.21686   0.75400   0.55127   0.03357  Uani   1.00
N3024  N     0.02778   0.99837   0.57415   0.03837  Uani   1.00
C3025  C     0.19301   0.75620   0.54465   0.04437  Uani   1.00
C3026  C     0.05177   0.99747   0.58108   0.05277  Uani   1.00
C3027  C     0.10943   0.99435   0.58223   0.06813  Uani   1.00
C3028  C     0.13528   0.99473   0.58230   0.07560  Uani   1.00
N3029  N     0.24600   0.96686   0.61377   0.03357  Uani   1.00
N3030  N     0.00163   0.77779   0.63665   0.03837  Uani   1.00
C3031  C     0.24380   0.94301   0.60715   0.04437  Uani   1.00
C3032  C     0.00253   0.80178   0.64358   0.05277  Uani   1.00
C3033  C     0.00565   0.85943   0.64473   0.06813  Uani   1.00
C3034  C     0.00528   0.88528   0.64480   0.07560  Uani   1.00
N3035  N     0.00400   0.78314   0.73877   0.03357  Uani   1.00
N3036  N     0.24837   0.97221   0.51165   0.03837  Uani   1.00
C3037  C     0.00620   0.80699   0.73215   0.04437  Uani   1.00
C3038  C     0.24748   0.94823   0.51858   0.05277  Uani   1.00
C3039  C     0.24435   0.89058   0.51973   0.06813  Uani   1.00
C3040  C     0.24473   0.86472   0.51980   0.07560  Uani   1.00
Co3041 Co    0.24721   0.99721   0.59375   0.02543  Uani   1.00
Co3042 Co    0.00279   0.75279   0.71875   0.02543  Uani   1.00
Co3043 Co    0.00279   0.99721   0.65625   0.02543  Uani   1.00
Co3044 Co    0.24721   0.75279   0.53125   0.02543  Uani   1.00
C3045  C     0.06790   0.75000   0.56250   0.04747  Uani   1.00
C3046  C     0.17678   0.75000   0.56250   0.04137  Uani   1.00
C3047  C     0.14888   0.75000   0.56250   0.05083  Uani   1.00
C3048  C     0.09598   0.75000   0.56250   0.05433  Uani   1.00
C3049  C     0.18210   0.75000   0.68750   0.04747  Uani   1.00
C3050  C     0.07322   0.75000   0.68750   0.04137  Uani   1.00
C3051  C     0.10112   0.75000   0.68750   0.05083  Uani   1.00
C3052  C     0.15402   0.75000   0.68750   0.05433  Uani   1.00
C3053  C     0.00000   0.81790   0.62500   0.04747  Uani   1.00
C3054  C     0.00000   0.92678   0.62500   0.04137  Uani   1.00
C3055  C     0.00000   0.89888   0.62500   0.05083  Uani   1.00
C3056  C     0.00000   0.84598   0.62500   0.05433  Uani   1.00
C3057  C     0.00000   0.93210   0.50000   0.04747  Uani   1.00
C3058  C     0.00000   0.82322   0.50000   0.04137  Uani   1.00
C3059  C     0.00000   0.85112   0.50000   0.05083  Uani   1.00
C3060  C     0.00000   0.90402   0.50000   0.05433  Uani   1.00
N3061  N     0.46686   0.99600   0.57373   0.03357  Uani   1.00
N3062  N     0.27778   0.75163   0.55085   0.03837  Uani   1.00
C3063  C     0.44301   0.99380   0.58035   0.04437  Uani   1.00
C3064  C     0.30177   0.75253   0.54393   0.05277  Uani   1.00
C3065  C     0.35943   0.75565   0.54278   0.06813  Uani   1.00
C3066  C     0.38528   0.75528   0.54270   0.07560  Uani   1.00
N3067  N     0.28314   0.75400   0.69873   0.03357  Uani   1.00
N3068  N     0.47222   0.99837   0.67585   0.03837  Uani   1.00
C3069  C     0.30699   0.75620   0.70535   0.04437  Uani   1.00
C3070  C     0.44822   0.99747   0.66893   0.05277  Uani   1.00
C3071  C     0.39057   0.99435   0.66778   0.06813  Uani   1.00
C3072  C     0.36472   0.99473   0.66770   0.07560  Uani   1.00
N3073  N     0.25400   0.96686   0.63623   0.03357  Uani   1.00
N3074  N     0.49838   0.77779   0.61335   0.03837  Uani   1.00
C3075  C     0.25620   0.94301   0.64285   0.04437  Uani   1.00
C3076  C     0.49748   0.80178   0.60643   0.05277  Uani   1.00
C3077  C     0.49435   0.85943   0.60528   0.06813  Uani   1.00
C3078  C     0.49473   0.88528   0.60520   0.07560  Uani   1.00
N3079  N     0.49600   0.78314   0.51123   0.03357  Uani   1.00
N3080  N     0.25163   0.97221   0.73835   0.03837  Uani   1.00
C3081  C     0.49380   0.80699   0.51785   0.04437  Uani   1.00
C3082  C     0.25253   0.94823   0.73143   0.05277  Uani   1.00
C3083  C     0.25565   0.89058   0.73028   0.06813  Uani   1.00
C3084  C     0.25528   0.86472   0.73020   0.07560  Uani   1.00
N3085  N     0.28314   0.99600   0.67627   0.03357  Uani   1.00
N3086  N     0.47222   0.75163   0.69915   0.03837  Uani   1.00
C3087  C     0.30699   0.99380   0.66965   0.04437  Uani   1.00
C3088  C     0.44822   0.75253   0.70608   0.05277  Uani   1.00
C3089  C     0.39057   0.75565   0.70723   0.06813  Uani   1.00
C3090  C     0.36472   0.75528   0.70730   0.07560  Uani   1.00
N3091  N     0.46686   0.75400   0.55127   0.03357  Uani   1.00
N3092  N     0.27778   0.99837   0.57415   0.03837  Uani   1.00
C3093  C     0.44301   0.75620   0.54465   0.04437  Uani   1.00
C3094  C     0.30177   0.99747   0.58108   0.05277  Uani   1.00
C3095  C     0.35943   0.99435   0.58223   0.06813  Uani   1.00
C3096  C     0.38528   0.99473   0.58230   0.07560  Uani   1.00
N3097  N     0.49600   0.96686   0.61377   0.03357  Uani   1.00
N3098  N     0.25163   0.77779   0.63665   0.03837  Uani   1.00
C3099  C     0.49380   0.94301   0.60715   0.04437  Uani   1.00
C3100  C     0.25253   0.80178   0.64358   0.05277  Uani   1.00
C3101  C     0.25565   0.85943   0.64473   0.06813  Uani   1.00
C3102  C     0.25528   0.88528   0.64480   0.07560  Uani   1.00
N3103  N     0.25400   0.78314   0.73877   0.03357  Uani   1.00
N3104  N     0.49838   0.97221   0.51165   0.03837  Uani   1.00
C3105  C     0.25620   0.80699   0.73215   0.04437  Uani   1.00
C3106  C     0.49748   0.94823   0.51858   0.05277  Uani   1.00
C3107  C     0.49435   0.89058   0.51973   0.06813  Uani   1.00
C3108  C     0.49473   0.86472   0.51980   0.07560  Uani   1.00
Co3109 Co    0.49721   0.99721   0.59375   0.02543  Uani   1.00
Co3110 Co    0.25279   0.75279   0.71875   0.02543  Uani   1.00
Co3111 Co    0.25279   0.99721   0.65625   0.02543  Uani   1.00
Co3112 Co    0.49721   0.75279   0.53125   0.02543  Uani   1.00
C3113  C     0.31790   0.75000   0.56250   0.04747  Uani   1.00
C3114  C     0.42678   0.75000   0.56250   0.04137  Uani   1.00
C3115  C     0.39888   0.75000   0.56250   0.05083  Uani   1.00
C3116  C     0.34598   0.75000   0.56250   0.05433  Uani   1.00
C3117  C     0.43210   0.75000   0.68750   0.04747  Uani   1.00
C3118  C     0.32322   0.75000   0.68750   0.04137  Uani   1.00
C3119  C     0.35112   0.75000   0.68750   0.05083  Uani   1.00
C3120  C     0.40403   0.75000   0.68750   0.05433  Uani   1.00
C3121  C     0.25000   0.81790   0.62500   0.04747  Uani   1.00
C3122  C     0.25000   0.92678   0.62500   0.04137  Uani   1.00
C3123  C     0.25000   0.89888   0.62500   0.05083  Uani   1.00
C3124  C     0.25000   0.84598   0.62500   0.05433  Uani   1.00
C3125  C     0.25000   0.93210   0.50000   0.04747  Uani   1.00
C3126  C     0.25000   0.82322   0.50000   0.04137  Uani   1.00
C3127  C     0.25000   0.85112   0.50000   0.05083  Uani   1.00
C3128  C     0.25000   0.90402   0.50000   0.05433  Uani   1.00
N3129  N     0.71686   0.99600   0.57373   0.03357  Uani   1.00
N3130  N     0.52779   0.75163   0.55085   0.03837  Uani   1.00
C3131  C     0.69301   0.99380   0.58035   0.04437  Uani   1.00
C3132  C     0.55178   0.75253   0.54393   0.05277  Uani   1.00
C3133  C     0.60943   0.75565   0.54278   0.06813  Uani   1.00
C3134  C     0.63528   0.75528   0.54270   0.07560  Uani   1.00
N3135  N     0.53314   0.75400   0.69873   0.03357  Uani   1.00
N3136  N     0.72222   0.99837   0.67585   0.03837  Uani   1.00
C3137  C     0.55699   0.75620   0.70535   0.04437  Uani   1.00
C3138  C     0.69823   0.99747   0.66893   0.05277  Uani   1.00
C3139  C     0.64058   0.99435   0.66778   0.06813  Uani   1.00
C3140  C     0.61473   0.99473   0.66770   0.07560  Uani   1.00
N3141  N     0.50400   0.96686   0.63623   0.03357  Uani   1.00
N3142  N     0.74837   0.77779   0.61335   0.03837  Uani   1.00
C3143  C     0.50620   0.94301   0.64285   0.04437  Uani   1.00
C3144  C     0.74748   0.80178   0.60643   0.05277  Uani   1.00
C3145  C     0.74435   0.85943   0.60528   0.06813  Uani   1.00
C3146  C     0.74473   0.88528   0.60520   0.07560  Uani   1.00
N3147  N     0.74600   0.78314   0.51123   0.03357  Uani   1.00
N3148  N     0.50163   0.97221   0.73835   0.03837  Uani   1.00
C3149  C     0.74380   0.80699   0.51785   0.04437  Uani   1.00
C3150  C     0.50253   0.94823   0.73143   0.05277  Uani   1.00
C3151  C     0.50565   0.89058   0.73028   0.06813  Uani   1.00
C3152  C     0.50528   0.86472   0.73020   0.07560  Uani   1.00
N3153  N     0.53314   0.99600   0.67627   0.03357  Uani   1.00
N3154  N     0.72222   0.75163   0.69915   0.03837  Uani   1.00
C3155  C     0.55699   0.99380   0.66965   0.04437  Uani   1.00
C3156  C     0.69823   0.75253   0.70608   0.05277  Uani   1.00
C3157  C     0.64058   0.75565   0.70723   0.06813  Uani   1.00
C3158  C     0.61473   0.75528   0.70730   0.07560  Uani   1.00
N3159  N     0.71686   0.75400   0.55127   0.03357  Uani   1.00
N3160  N     0.52779   0.99837   0.57415   0.03837  Uani   1.00
C3161  C     0.69301   0.75620   0.54465   0.04437  Uani   1.00
C3162  C     0.55178   0.99747   0.58108   0.05277  Uani   1.00
C3163  C     0.60943   0.99435   0.58223   0.06813  Uani   1.00
C3164  C     0.63528   0.99473   0.58230   0.07560  Uani   1.00
N3165  N     0.74600   0.96686   0.61377   0.03357  Uani   1.00
N3166  N     0.50163   0.77779   0.63665   0.03837  Uani   1.00
C3167  C     0.74380   0.94301   0.60715   0.04437  Uani   1.00
C3168  C     0.50253   0.80178   0.64358   0.05277  Uani   1.00
C3169  C     0.50565   0.85943   0.64473   0.06813  Uani   1.00
C3170  C     0.50528   0.88528   0.64480   0.07560  Uani   1.00
N3171  N     0.50400   0.78314   0.73877   0.03357  Uani   1.00
N3172  N     0.74837   0.97221   0.51165   0.03837  Uani   1.00
C3173  C     0.50620   0.80699   0.73215   0.04437  Uani   1.00
C3174  C     0.74748   0.94823   0.51858   0.05277  Uani   1.00
C3175  C     0.74435   0.89058   0.51973   0.06813  Uani   1.00
C3176  C     0.74473   0.86472   0.51980   0.07560  Uani   1.00
Co3177 Co    0.74721   0.99721   0.59375   0.02543  Uani   1.00
Co3178 Co    0.50279   0.75279   0.71875   0.02543  Uani   1.00
Co3179 Co    0.50279   0.99721   0.65625   0.02543  Uani   1.00
Co3180 Co    0.74721   0.75279   0.53125   0.02543  Uani   1.00
C3181  C     0.56790   0.75000   0.56250   0.04747  Uani   1.00
C3182  C     0.67678   0.75000   0.56250   0.04137  Uani   1.00
C3183  C     0.64888   0.75000   0.56250   0.05083  Uani   1.00
C3184  C     0.59598   0.75000   0.56250   0.05433  Uani   1.00
C3185  C     0.68210   0.75000   0.68750   0.04747  Uani   1.00
C3186  C     0.57322   0.75000   0.68750   0.04137  Uani   1.00
C3187  C     0.60112   0.75000   0.68750   0.05083  Uani   1.00
C3188  C     0.65402   0.75000   0.68750   0.05433  Uani   1.00
C3189  C     0.50000   0.81790   0.62500   0.04747  Uani   1.00
C3190  C     0.50000   0.92678   0.62500   0.04137  Uani   1.00
C3191  C     0.50000   0.89888   0.62500   0.05083  Uani   1.00
C3192  C     0.50000   0.84598   0.62500   0.05433  Uani   1.00
C3193  C     0.50000   0.93210   0.50000   0.04747  Uani   1.00
C3194  C     0.50000   0.82322   0.50000   0.04137  Uani   1.00
C3195  C     0.50000   0.85112   0.50000   0.05083  Uani   1.00
C3196  C     0.50000   0.90402   0.50000   0.05433  Uani   1.00
N3197  N     0.96686   0.99600   0.57373   0.03357  Uani   1.00
N3198  N     0.77779   0.75163   0.55085   0.03837  Uani   1.00
C3199  C     0.94301   0.99380   0.58035   0.04437  Uani   1.00
C3200  C     0.80178   0.75253   0.54393   0.05277  Uani   1.00
C3201  C     0.85943   0.75565   0.54278   0.06813  Uani   1.00
C3202  C     0.88528   0.75528   0.54270   0.07560  Uani   1.00
N3203  N     0.78314   0.75400   0.69873   0.03357  Uani   1.00
N3204  N     0.97222   0.99837   0.67585   0.03837  Uani   1.00
C3205  C     0.80699   0.75620   0.70535   0.04437  Uani   1.00
C3206  C     0.94823   0.99747   0.66893   0.05277  Uani   1.00
C3207  C     0.89058   0.99435   0.66778   0.06813  Uani   1.00
C3208  C     0.86472   0.99473   0.66770   0.07560  Uani   1.00
N3209  N     0.75400   0.96686   0.63623   0.03357  Uani   1.00
N3210  N     0.99838   0.77779   0.61335   0.03837  Uani   1.00
C3211  C     0.75620   0.94301   0.64285   0.04437  Uani   1.00
C3212  C     0.99748   0.80178   0.60643   0.05277  Uani   1.00
C3213  C     0.99435   0.85943   0.60528   0.06813  Uani   1.00
C3214  C     0.99473   0.88528   0.60520   0.07560  Uani   1.00
N3215  N     0.99600   0.78314   0.51123   0.03357  Uani   1.00
N3216  N     0.75163   0.97221   0.73835   0.03837  Uani   1.00
C3217  C     0.99380   0.80699   0.51785   0.04437  Uani   1.00
C3218  C     0.75253   0.94823   0.73143   0.05277  Uani   1.00
C3219  C     0.75565   0.89058   0.73028   0.06813  Uani   1.00
C3220  C     0.75528   0.86472   0.73020   0.07560  Uani   1.00
N3221  N     0.78314   0.99600   0.67627   0.03357  Uani   1.00
N3222  N     0.97222   0.75163   0.69915   0.03837  Uani   1.00
C3223  C     0.80699   0.99380   0.66965   0.04437  Uani   1.00
C3224  C     0.94823   0.75253   0.70608   0.05277  Uani   1.00
C3225  C     0.89058   0.75565   0.70723   0.06813  Uani   1.00
C3226  C     0.86472   0.75528   0.70730   0.07560  Uani   1.00
N3227  N     0.96686   0.75400   0.55127   0.03357  Uani   1.00
N3228  N     0.77779   0.99837   0.57415   0.03837  Uani   1.00
C3229  C     0.94301   0.75620   0.54465   0.04437  Uani   1.00
C3230  C     0.80178   0.99747   0.58108   0.05277  Uani   1.00
C3231  C     0.85943   0.99435   0.58223   0.06813  Uani   1.00
C3232  C     0.88528   0.99473   0.58230   0.07560  Uani   1.00
N3233  N     0.99600   0.96686   0.61377   0.03357  Uani   1.00
N3234  N     0.75163   0.77779   0.63665   0.03837  Uani   1.00
C3235  C     0.99380   0.94301   0.60715   0.04437  Uani   1.00
C3236  C     0.75253   0.80178   0.64358   0.05277  Uani   1.00
C3237  C     0.75565   0.85943   0.64473   0.06813  Uani   1.00
C3238  C     0.75528   0.88528   0.64480   0.07560  Uani   1.00
N3239  N     0.75400   0.78314   0.73877   0.03357  Uani   1.00
N3240  N     0.99838   0.97221   0.51165   0.03837  Uani   1.00
C3241  C     0.75620   0.80699   0.73215   0.04437  Uani   1.00
C3242  C     0.99748   0.94823   0.51858   0.05277  Uani   1.00
C3243  C     0.99435   0.89058   0.51973   0.06813  Uani   1.00
C3244  C     0.99473   0.86472   0.51980   0.07560  Uani   1.00
Co3245 Co    0.99721   0.99721   0.59375   0.02543  Uani   1.00
Co3246 Co    0.75279   0.75279   0.71875   0.02543  Uani   1.00
Co3247 Co    0.75279   0.99721   0.65625   0.02543  Uani   1.00
Co3248 Co    0.99721   0.75279   0.53125   0.02543  Uani   1.00
C3249  C     0.81790   0.75000   0.56250   0.04747  Uani   1.00
C3250  C     0.92678   0.75000   0.56250   0.04137  Uani   1.00
C3251  C     0.89888   0.75000   0.56250   0.05083  Uani   1.00
C3252  C     0.84598   0.75000   0.56250   0.05433  Uani   1.00
C3253  C     0.93210   0.75000   0.68750   0.04747  Uani   1.00
C3254  C     0.82322   0.75000   0.68750   0.04137  Uani   1.00
C3255  C     0.85113   0.75000   0.68750   0.05083  Uani   1.00
C3256  C     0.90403   0.75000   0.68750   0.05433  Uani   1.00
C3257  C     0.75000   0.81790   0.62500   0.04747  Uani   1.00
C3258  C     0.75000   0.92678   0.62500   0.04137  Uani   1.00
C3259  C     0.75000   0.89888   0.62500   0.05083  Uani   1.00
C3260  C     0.75000   0.84598   0.62500   0.05433  Uani   1.00
C3261  C     0.75000   0.93210   0.50000   0.04747  Uani   1.00
C3262  C     0.75000   0.82322   0.50000   0.04137  Uani   1.00
C3263  C     0.75000   0.85112   0.50000   0.05083  Uani   1.00
C3264  C     0.75000   0.90402   0.50000   0.05433  Uani   1.00
N3265  N     0.21686   0.24600   0.82373   0.03357  Uani   1.00
N3266  N     0.02778   0.00163   0.80085   0.03837  Uani   1.00
C3267  C     0.19301   0.24380   0.83035   0.04437  Uani   1.00
C3268  C     0.05177   0.00253   0.79393   0.05277  Uani   1.00
C3269  C     0.10943   0.00565   0.79278   0.06813  Uani   1.00
C3270  C     0.13528   0.00528   0.79270   0.07560  Uani   1.00
N3271  N     0.03314   0.00400   0.94873   0.03357  Uani   1.00
N3272  N     0.22221   0.24837   0.92585   0.03837  Uani   1.00
C3273  C     0.05699   0.00620   0.95535   0.04437  Uani   1.00
C3274  C     0.19823   0.24747   0.91893   0.05277  Uani   1.00
C3275  C     0.14057   0.24435   0.91778   0.06813  Uani   1.00
C3276  C     0.11472   0.24472   0.91770   0.07560  Uani   1.00
N3277  N     0.00400   0.21686   0.88623   0.03357  Uani   1.00
N3278  N     0.24837   0.02779   0.86335   0.03837  Uani   1.00
C3279  C     0.00620   0.19301   0.89285   0.04437  Uani   1.00
C3280  C     0.24748   0.05178   0.85643   0.05277  Uani   1.00
C3281  C     0.24435   0.10943   0.85528   0.06813  Uani   1.00
C3282  C     0.24473   0.13528   0.85520   0.07560  Uani   1.00
N3283  N     0.24600   0.03314   0.76123   0.03357  Uani   1.00
N3284  N     0.00163   0.22221   0.98835   0.03837  Uani   1.00
C3285  C     0.24380   0.05699   0.76785   0.04437  Uani   1.00
C3286  C     0.00253   0.19823   0.98143   0.05277  Uani   1.00
C3287  C     0.00565   0.14058   0.98028   0.06813  Uani   1.00
C3288  C     0.00528   0.11472   0.98020   0.07560  Uani   1.00
N3289  N     0.03314   0.24600   0.92627   0.03357  Uani   1.00
N3290  N     0.22221   0.00163   0.94915   0.03837  Uani   1.00
C3291  C     0.05699   0.24380   0.91965   0.04437  Uani   1.00
C3292  C     0.19823   0.00253   0.95608   0.05277  Uani   1.00
C3293  C     0.14057   0.00565   0.95723   0.06813  Uani   1.00
C3294  C     0.11472   0.00528   0.95730   0.07560  Uani   1.00
N3295  N     0.21686   0.00400   0.80127   0.03357  Uani   1.00
N3296  N     0.02778   0.24837   0.82415   0.03837  Uani   1.00
C3297  C     0.19301   0.00620   0.79465   0.04437  Uani   1.00
C3298  C     0.05177   0.24747   0.83108   0.05277  Uani   1.00
C3299  C     0.10943   0.24435   0.83223   0.06813  Uani   1.00
C3300  C     0.13528   0.24472   0.83230   0.07560  Uani   1.00
N3301  N     0.24600   0.21686   0.86377   0.03357  Uani   1.00
N3302  N     0.00163   0.02779   0.88665   0.03837  Uani   1.00
C3303  C     0.24380   0.19301   0.85715   0.04437  Uani   1.00
C3304  C     0.00253   0.05178   0.89358   0.05277  Uani   1.00
C3305  C     0.00565   0.10943   0.89473   0.06813  Uani   1.00
C3306  C     0.00528   0.13528   0.89480   0.07560  Uani   1.00
N3307  N     0.00400   0.03314   0.98877   0.03357  Uani   1.00
N3308  N     0.24837   0.22221   0.76165   0.03837  Uani   1.00
C3309  C     0.00620   0.05699   0.98215   0.04437  Uani   1.00
C3310  C     0.24748   0.19823   0.76858   0.05277  Uani   1.00
C3311  C     0.24435   0.14058   0.76973   0.06813  Uani   1.00
C3312  C     0.24473   0.11472   0.76980   0.07560  Uani   1.00
Co3313 Co    0.24721   0.24721   0.84375   0.02543  Uani   1.00
Co3314 Co    0.00279   0.00279   0.96875   0.02543  Uani   1.00
Co3315 Co    0.00279   0.24721   0.90625   0.02543  Uani   1.00
Co3316 Co    0.24721   0.00279   0.78125   0.02543  Uani   1.00
C3317  C     0.06790   0.00000   0.81250   0.04747  Uani   1.00
C3318  C     0.17678   0.00000   0.81250   0.04137  Uani   1.00
C3319  C     0.14888   0.00000   0.81250   0.05083  Uani   1.00
C3320  C     0.09598   0.00000   0.81250   0.05433  Uani   1.00
C3321  C     0.18210   0.00000   0.93750   0.04747  Uani   1.00
C3322  C     0.07322   0.00000   0.93750   0.04137  Uani   1.00
C3323  C     0.10112   0.00000   0.93750   0.05083  Uani   1.00
C3324  C     0.15402   0.00000   0.93750   0.05433  Uani   1.00
C3325  C     0.00000   0.06790   0.87500   0.04747  Uani   1.00
C3326  C     0.00000   0.17678   0.87500   0.04137  Uani   1.00
C3327  C     0.00000   0.14888   0.87500   0.05083  Uani   1.00
C3328  C     0.00000   0.09598   0.87500   0.05433  Uani   1.00
C3329  C     0.00000   0.18210   0.75000   0.04747  Uani   1.00
C3330  C     0.00000   0.07322   0.75000   0.04137  Uani   1.00
C3331  C     0.00000   0.10112   0.75000   0.05083  Uani   1.00
C3332  C     0.00000   0.15402   0.75000   0.05433  Uani   1.00
N3333  N     0.46686   0.24600   0.82373   0.03357  Uani   1.00
N3334  N     0.27778   0.00163   0.80085   0.03837  Uani   1.00
C3335  C     0.44301   0.24380   0.83035   0.04437  Uani   1.00
C3336  C     0.30177   0.00253   0.79393   0.05277  Uani   1.00
C3337  C     0.35943   0.00565   0.79278   0.06813  Uani   1.00
C3338  C     0.38528   0.00528   0.79270   0.07560  Uani   1.00
N3339  N     0.28314   0.00400   0.94873   0.03357  Uani   1.00
N3340  N     0.47222   0.24837   0.92585   0.03837  Uani   1.00
C3341  C     0.30699   0.00620   0.95535   0.04437  Uani   1.00
C3342  C     0.44822   0.24747   0.91893   0.05277  Uani   1.00
C3343  C     0.39057   0.24435   0.91778   0.06813  Uani   1.00
C3344  C     0.36472   0.24472   0.91770   0.07560  Uani   1.00
N3345  N     0.25400   0.21686   0.88623   0.03357  Uani   1.00
N3346  N     0.49838   0.02779   0.86335   0.03837  Uani   1.00
C3347  C     0.25620   0.19301   0.89285   0.04437  Uani   1.00
C3348  C     0.49748   0.05178   0.85643   0.05277  Uani   1.00
C3349  C     0.49435   0.10943   0.85528   0.06813  Uani   1.00
C3350  C     0.49473   0.13528   0.85520   0.07560  Uani   1.00
N3351  N     0.49600   0.03314   0.76123   0.03357  Uani   1.00
N3352  N     0.25163   0.22221   0.98835   0.03837  Uani   1.00
C3353  C     0.49380   0.05699   0.76785   0.04437  Uani   1.00
C3354  C     0.25253   0.19823   0.98143   0.05277  Uani   1.00
C3355  C     0.25565   0.14058   0.98028   0.06813  Uani   1.00
C3356  C     0.25528   0.11472   0.98020   0.07560  Uani   1.00
N3357  N     0.28314   0.24600   0.92627   0.03357  Uani   1.00
N3358  N     0.47222   0.00163   0.94915   0.03837  Uani   1.00
C3359  C     0.30699   0.24380   0.91965   0.04437  Uani   1.00
C3360  C     0.44822   0.00253   0.95608   0.05277  Uani   1.00
C3361  C     0.39057   0.00565   0.95723   0.06813  Uani   1.00
C3362  C     0.36472   0.00528   0.95730   0.07560  Uani   1.00
N3363  N     0.46686   0.00400   0.80127   0.03357  Uani   1.00
N3364  N     0.27778   0.24837   0.82415   0.03837  Uani   1.00
C3365  C     0.44301   0.00620   0.79465   0.04437  Uani   1.00
C3366  C     0.30177   0.24747   0.83108   0.05277  Uani   1.00
C3367  C     0.35943   0.24435   0.83223   0.06813  Uani   1.00
C3368  C     0.38528   0.24472   0.83230   0.07560  Uani   1.00
N3369  N     0.49600   0.21686   0.86377   0.03357  Uani   1.00
N3370  N     0.25163   0.02779   0.88665   0.03837  Uani   1.00
C3371  C     0.49380   0.19301   0.85715   0.04437  Uani   1.00
C3372  C     0.25253   0.05178   0.89358   0.05277  Uani   1.00
C3373  C     0.25565   0.10943   0.89473   0.06813  Uani   1.00
C3374  C     0.25528   0.13528   0.89480   0.07560  Uani   1.00
N3375  N     0.25400   0.03314   0.98877   0.03357  Uani   1.00
N3376  N     0.49838   0.22221   0.76165   0.03837  Uani   1.00
C3377  C     0.25620   0.05699   0.98215   0.04437  Uani   1.00
C3378  C     0.49748   0.19823   0.76858   0.05277  Uani   1.00
C3379  C     0.49435   0.14058   0.76973   0.06813  Uani   1.00
C3380  C     0.49473   0.11472   0.76980   0.07560  Uani   1.00
Co3381 Co    0.49721   0.24721   0.84375   0.02543  Uani   1.00
Co3382 Co    0.25279   0.00279   0.96875   0.02543  Uani   1.00
Co3383 Co    0.25279   0.24721   0.90625   0.02543  Uani   1.00
Co3384 Co    0.49721   0.00279   0.78125   0.02543  Uani   1.00
C3385  C     0.31790   0.00000   0.81250   0.04747  Uani   1.00
C3386  C     0.42678   0.00000   0.81250   0.04137  Uani   1.00
C3387  C     0.39888   0.00000   0.81250   0.05083  Uani   1.00
C3388  C     0.34598   0.00000   0.81250   0.05433  Uani   1.00
C3389  C     0.43210   0.00000   0.93750   0.04747  Uani   1.00
C3390  C     0.32322   0.00000   0.93750   0.04137  Uani   1.00
C3391  C     0.35112   0.00000   0.93750   0.05083  Uani   1.00
C3392  C     0.40403   0.00000   0.93750   0.05433  Uani   1.00
C3393  C     0.25000   0.06790   0.87500   0.04747  Uani   1.00
C3394  C     0.25000   0.17678   0.87500   0.04137  Uani   1.00
C3395  C     0.25000   0.14888   0.87500   0.05083  Uani   1.00
C3396  C     0.25000   0.09598   0.87500   0.05433  Uani   1.00
C3397  C     0.25000   0.18210   0.75000   0.04747  Uani   1.00
C3398  C     0.25000   0.07322   0.75000   0.04137  Uani   1.00
C3399  C     0.25000   0.10112   0.75000   0.05083  Uani   1.00
C3400  C     0.25000   0.15402   0.75000   0.05433  Uani   1.00
N3401  N     0.71686   0.24600   0.82373   0.03357  Uani   1.00
N3402  N     0.52779   0.00163   0.80085   0.03837  Uani   1.00
C3403  C     0.69301   0.24380   0.83035   0.04437  Uani   1.00
C3404  C     0.55178   0.00253   0.79393   0.05277  Uani   1.00
C3405  C     0.60943   0.00565   0.79278   0.06813  Uani   1.00
C3406  C     0.63528   0.00528   0.79270   0.07560  Uani   1.00
N3407  N     0.53314   0.00400   0.94873   0.03357  Uani   1.00
N3408  N     0.72222   0.24837   0.92585   0.03837  Uani   1.00
C3409  C     0.55699   0.00620   0.95535   0.04437  Uani   1.00
C3410  C     0.69823   0.24747   0.91893   0.05277  Uani   1.00
C3411  C     0.64058   0.24435   0.91778   0.06813  Uani   1.00
C3412  C     0.61473   0.24472   0.91770   0.07560  Uani   1.00
N3413  N     0.50400   0.21686   0.88623   0.03357  Uani   1.00
N3414  N     0.74837   0.02779   0.86335   0.03837  Uani   1.00
C3415  C     0.50620   0.19301   0.89285   0.04437  Uani   1.00
C3416  C     0.74748   0.05178   0.85643   0.05277  Uani   1.00
C3417  C     0.74435   0.10943   0.85528   0.06813  Uani   1.00
C3418  C     0.74473   0.13528   0.85520   0.07560  Uani   1.00
N3419  N     0.74600   0.03314   0.76123   0.03357  Uani   1.00
N3420  N     0.50163   0.22221   0.98835   0.03837  Uani   1.00
C3421  C     0.74380   0.05699   0.76785   0.04437  Uani   1.00
C3422  C     0.50253   0.19823   0.98143   0.05277  Uani   1.00
C3423  C     0.50565   0.14058   0.98028   0.06813  Uani   1.00
C3424  C     0.50528   0.11472   0.98020   0.07560  Uani   1.00
N3425  N     0.53314   0.24600   0.92627   0.03357  Uani   1.00
N3426  N     0.72222   0.00163   0.94915   0.03837  Uani   1.00
C3427  C     0.55699   0.24380   0.91965   0.04437  Uani   1.00
C3428  C     0.69823   0.00253   0.95608   0.05277  Uani   1.00
C3429  C     0.64058   0.00565   0.95723   0.06813  Uani   1.00
C3430  C     0.61473   0.00528   0.95730   0.07560  Uani   1.00
N3431  N     0.71686   0.00400   0.80127   0.03357  Uani   1.00
N3432  N     0.52779   0.24837   0.82415   0.03837  Uani   1.00
C3433  C     0.69301   0.00620   0.79465   0.04437  Uani   1.00
C3434  C     0.55178   0.24747   0.83108   0.05277  Uani   1.00
C3435  C     0.60943   0.24435   0.83223   0.06813  Uani   1.00
C3436  C     0.63528   0.24472   0.83230   0.07560  Uani   1.00
N3437  N     0.74600   0.21686   0.86377   0.03357  Uani   1.00
N3438  N     0.50163   0.02779   0.88665   0.03837  Uani   1.00
C3439  C     0.74380   0.19301   0.85715   0.04437  Uani   1.00
C3440  C     0.50253   0.05178   0.89358   0.05277  Uani   1.00
C3441  C     0.50565   0.10943   0.89473   0.06813  Uani   1.00
C3442  C     0.50528   0.13528   0.89480   0.07560  Uani   1.00
N3443  N     0.50400   0.03314   0.98877   0.03357  Uani   1.00
N3444  N     0.74837   0.22221   0.76165   0.03837  Uani   1.00
C3445  C     0.50620   0.05699   0.98215   0.04437  Uani   1.00
C3446  C     0.74748   0.19823   0.76858   0.05277  Uani   1.00
C3447  C     0.74435   0.14058   0.76973   0.06813  Uani   1.00
C3448  C     0.74473   0.11472   0.76980   0.07560  Uani   1.00
Co3449 Co    0.74721   0.24721   0.84375   0.02543  Uani   1.00
Co3450 Co    0.50279   0.00279   0.96875   0.02543  Uani   1.00
Co3451 Co    0.50279   0.24721   0.90625   0.02543  Uani   1.00
Co3452 Co    0.74721   0.00279   0.78125   0.02543  Uani   1.00
C3453  C     0.56790   0.00000   0.81250   0.04747  Uani   1.00
C3454  C     0.67678   0.00000   0.81250   0.04137  Uani   1.00
C3455  C     0.64888   0.00000   0.81250   0.05083  Uani   1.00
C3456  C     0.59598   0.00000   0.81250   0.05433  Uani   1.00
C3457  C     0.68210   0.00000   0.93750   0.04747  Uani   1.00
C3458  C     0.57322   0.00000   0.93750   0.04137  Uani   1.00
C3459  C     0.60112   0.00000   0.93750   0.05083  Uani   1.00
C3460  C     0.65402   0.00000   0.93750   0.05433  Uani   1.00
C3461  C     0.50000   0.06790   0.87500   0.04747  Uani   1.00
C3462  C     0.50000   0.17678   0.87500   0.04137  Uani   1.00
C3463  C     0.50000   0.14888   0.87500   0.05083  Uani   1.00
C3464  C     0.50000   0.09598   0.87500   0.05433  Uani   1.00
C3465  C     0.50000   0.18210   0.75000   0.04747  Uani   1.00
C3466  C     0.50000   0.07322   0.75000   0.04137  Uani   1.00
C3467  C     0.50000   0.10112   0.75000   0.05083  Uani   1.00
C3468  C     0.50000   0.15402   0.75000   0.05433  Uani   1.00
N3469  N     0.96686   0.24600   0.82373   0.03357  Uani   1.00
N3470  N     0.77779   0.00163   0.80085   0.03837  Uani   1.00
C3471  C     0.94301   0.24380   0.83035   0.04437  Uani   1.00
C3472  C     0.80178   0.00253   0.79393   0.05277  Uani   1.00
C3473  C     0.85943   0.00565   0.79278   0.06813  Uani   1.00
C3474  C     0.88528   0.00528   0.79270   0.07560  Uani   1.00
N3475  N     0.78314   0.00400   0.94873   0.03357  Uani   1.00
N3476  N     0.97222   0.24837   0.92585   0.03837  Uani   1.00
C3477  C     0.80699   0.00620   0.95535   0.04437  Uani   1.00
C3478  C     0.94823   0.24747   0.91893   0.05277  Uani   1.00
C3479  C     0.89058   0.24435   0.91778   0.06813  Uani   1.00
C3480  C     0.86472   0.24472   0.91770   0.07560  Uani   1.00
N3481  N     0.75400   0.21686   0.88623   0.03357  Uani   1.00
N3482  N     0.99838   0.02779   0.86335   0.03837  Uani   1.00
C3483  C     0.75620   0.19301   0.89285   0.04437  Uani   1.00
C3484  C     0.99748   0.05178   0.85643   0.05277  Uani   1.00
C3485  C     0.99435   0.10943   0.85528   0.06813  Uani   1.00
C3486  C     0.99473   0.13528   0.85520   0.07560  Uani   1.00
N3487  N     0.99600   0.03314   0.76123   0.03357  Uani   1.00
N3488  N     0.75163   0.22221   0.98835   0.03837  Uani   1.00
C3489  C     0.99380   0.05699   0.76785   0.04437  Uani   1.00
C3490  C     0.75253   0.19823   0.98143   0.05277  Uani   1.00
C3491  C     0.75565   0.14058   0.98028   0.06813  Uani   1.00
C3492  C     0.75528   0.11472   0.98020   0.07560  Uani   1.00
N3493  N     0.78314   0.24600   0.92627   0.03357  Uani   1.00
N3494  N     0.97222   0.00163   0.94915   0.03837  Uani   1.00
C3495  C     0.80699   0.24380   0.91965   0.04437  Uani   1.00
C3496  C     0.94823   0.00253   0.95608   0.05277  Uani   1.00
C3497  C     0.89058   0.00565   0.95723   0.06813  Uani   1.00
C3498  C     0.86472   0.00528   0.95730   0.07560  Uani   1.00
N3499  N     0.96686   0.00400   0.80127   0.03357  Uani   1.00
N3500  N     0.77779   0.24837   0.82415   0.03837  Uani   1.00
C3501  C     0.94301   0.00620   0.79465   0.04437  Uani   1.00
C3502  C     0.80178   0.24747   0.83108   0.05277  Uani   1.00
C3503  C     0.85943   0.24435   0.83223   0.06813  Uani   1.00
C3504  C     0.88528   0.24472   0.83230   0.07560  Uani   1.00
N3505  N     0.99600   0.21686   0.86377   0.03357  Uani   1.00
N3506  N     0.75163   0.02779   0.88665   0.03837  Uani   1.00
C3507  C     0.99380   0.19301   0.85715   0.04437  Uani   1.00
C3508  C     0.75253   0.05178   0.89358   0.05277  Uani   1.00
C3509  C     0.75565   0.10943   0.89473   0.06813  Uani   1.00
C3510  C     0.75528   0.13528   0.89480   0.07560  Uani   1.00
N3511  N     0.75400   0.03314   0.98877   0.03357  Uani   1.00
N3512  N     0.99838   0.22221   0.76165   0.03837  Uani   1.00
C3513  C     0.75620   0.05699   0.98215   0.04437  Uani   1.00
C3514  C     0.99748   0.19823   0.76858   0.05277  Uani   1.00
C3515  C     0.99435   0.14058   0.76973   0.06813  Uani   1.00
C3516  C     0.99473   0.11472   0.76980   0.07560  Uani   1.00
Co3517 Co    0.99721   0.24721   0.84375   0.02543  Uani   1.00
Co3518 Co    0.75279   0.00279   0.96875   0.02543  Uani   1.00
Co3519 Co    0.75279   0.24721   0.90625   0.02543  Uani   1.00
Co3520 Co    0.99721   0.00279   0.78125   0.02543  Uani   1.00
C3521  C     0.81790   0.00000   0.81250   0.04747  Uani   1.00
C3522  C     0.92678   0.00000   0.81250   0.04137  Uani   1.00
C3523  C     0.89888   0.00000   0.81250   0.05083  Uani   1.00
C3524  C     0.84598   0.00000   0.81250   0.05433  Uani   1.00
C3525  C     0.93210   0.00000   0.93750   0.04747  Uani   1.00
C3526  C     0.82322   0.00000   0.93750   0.04137  Uani   1.00
C3527  C     0.85113   0.00000   0.93750   0.05083  Uani   1.00
C3528  C     0.90403   0.00000   0.93750   0.05433  Uani   1.00
C3529  C     0.75000   0.06790   0.87500   0.04747  Uani   1.00
C3530  C     0.75000   0.17678   0.87500   0.04137  Uani   1.00
C3531  C     0.75000   0.14888   0.87500   0.05083  Uani   1.00
C3532  C     0.75000   0.09598   0.87500   0.05433  Uani   1.00
C3533  C     0.75000   0.18210   0.75000   0.04747  Uani   1.00
C3534  C     0.75000   0.07322   0.75000   0.04137  Uani   1.00
C3535  C     0.75000   0.10112   0.75000   0.05083  Uani   1.00
C3536  C     0.75000   0.15402   0.75000   0.05433  Uani   1.00
N3537  N     0.21686   0.49600   0.82373   0.03357  Uani   1.00
N3538  N     0.02778   0.25163   0.80085   0.03837  Uani   1.00
C3539  C     0.19301   0.49380   0.83035   0.04437  Uani   1.00
C3540  C     0.05177   0.25253   0.79393   0.05277  Uani   1.00
C3541  C     0.10943   0.25565   0.79278   0.06813  Uani   1.00
C3542  C     0.13528   0.25528   0.79270   0.07560  Uani   1.00
N3543  N     0.03314   0.25400   0.94873   0.03357  Uani   1.00
N3544  N     0.22221   0.49837   0.92585   0.03837  Uani   1.00
C3545  C     0.05699   0.25620   0.95535   0.04437  Uani   1.00
C3546  C     0.19823   0.49747   0.91893   0.05277  Uani   1.00
C3547  C     0.14057   0.49435   0.91778   0.06813  Uani   1.00
C3548  C     0.11472   0.49472   0.91770   0.07560  Uani   1.00
N3549  N     0.00400   0.46686   0.88623   0.03357  Uani   1.00
N3550  N     0.24837   0.27779   0.86335   0.03837  Uani   1.00
C3551  C     0.00620   0.44301   0.89285   0.04437  Uani   1.00
C3552  C     0.24748   0.30178   0.85643   0.05277  Uani   1.00
C3553  C     0.24435   0.35943   0.85528   0.06813  Uani   1.00
C3554  C     0.24473   0.38528   0.85520   0.07560  Uani   1.00
N3555  N     0.24600   0.28314   0.76123   0.03357  Uani   1.00
N3556  N     0.00163   0.47221   0.98835   0.03837  Uani   1.00
C3557  C     0.24380   0.30699   0.76785   0.04437  Uani   1.00
C3558  C     0.00253   0.44823   0.98143   0.05277  Uani   1.00
C3559  C     0.00565   0.39058   0.98028   0.06813  Uani   1.00
C3560  C     0.00528   0.36472   0.98020   0.07560  Uani   1.00
N3561  N     0.03314   0.49600   0.92627   0.03357  Uani   1.00
N3562  N     0.22221   0.25163   0.94915   0.03837  Uani   1.00
C3563  C     0.05699   0.49380   0.91965   0.04437  Uani   1.00
C3564  C     0.19823   0.25253   0.95608   0.05277  Uani   1.00
C3565  C     0.14057   0.25565   0.95723   0.06813  Uani   1.00
C3566  C     0.11472   0.25528   0.95730   0.07560  Uani   1.00
N3567  N     0.21686   0.25400   0.80127   0.03357  Uani   1.00
N3568  N     0.02778   0.49837   0.82415   0.03837  Uani   1.00
C3569  C     0.19301   0.25620   0.79465   0.04437  Uani   1.00
C3570  C     0.05177   0.49747   0.83108   0.05277  Uani   1.00
C3571  C     0.10943   0.49435   0.83223   0.06813  Uani   1.00
C3572  C     0.13528   0.49472   0.83230   0.07560  Uani   1.00
N3573  N     0.24600   0.46686   0.86377   0.03357  Uani   1.00
N3574  N     0.00163   0.27779   0.88665   0.03837  Uani   1.00
C3575  C     0.24380   0.44301   0.85715   0.04437  Uani   1.00
C3576  C     0.00253   0.30178   0.89358   0.05277  Uani   1.00
C3577  C     0.00565   0.35943   0.89473   0.06813  Uani   1.00
C3578  C     0.00528   0.38528   0.89480   0.07560  Uani   1.00
N3579  N     0.00400   0.28314   0.98877   0.03357  Uani   1.00
N3580  N     0.24837   0.47221   0.76165   0.03837  Uani   1.00
C3581  C     0.00620   0.30699   0.98215   0.04437  Uani   1.00
C3582  C     0.24748   0.44823   0.76858   0.05277  Uani   1.00
C3583  C     0.24435   0.39058   0.76973   0.06813  Uani   1.00
C3584  C     0.24473   0.36472   0.76980   0.07560  Uani   1.00
Co3585 Co    0.24721   0.49721   0.84375   0.02543  Uani   1.00
Co3586 Co    0.00279   0.25279   0.96875   0.02543  Uani   1.00
Co3587 Co    0.00279   0.49721   0.90625   0.02543  Uani   1.00
Co3588 Co    0.24721   0.25279   0.78125   0.02543  Uani   1.00
C3589  C     0.06790   0.25000   0.81250   0.04747  Uani   1.00
C3590  C     0.17678   0.25000   0.81250   0.04137  Uani   1.00
C3591  C     0.14888   0.25000   0.81250   0.05083  Uani   1.00
C3592  C     0.09598   0.25000   0.81250   0.05433  Uani   1.00
C3593  C     0.18210   0.25000   0.93750   0.04747  Uani   1.00
C3594  C     0.07322   0.25000   0.93750   0.04137  Uani   1.00
C3595  C     0.10112   0.25000   0.93750   0.05083  Uani   1.00
C3596  C     0.15402   0.25000   0.93750   0.05433  Uani   1.00
C3597  C     0.00000   0.31790   0.87500   0.04747  Uani   1.00
C3598  C     0.00000   0.42678   0.87500   0.04137  Uani   1.00
C3599  C     0.00000   0.39888   0.87500   0.05083  Uani   1.00
C3600  C     0.00000   0.34598   0.87500   0.05433  Uani   1.00
C3601  C     0.00000   0.43210   0.75000   0.04747  Uani   1.00
C3602  C     0.00000   0.32322   0.75000   0.04137  Uani   1.00
C3603  C     0.00000   0.35112   0.75000   0.05083  Uani   1.00
C3604  C     0.00000   0.40402   0.75000   0.05433  Uani   1.00
N3605  N     0.46686   0.49600   0.82373   0.03357  Uani   1.00
N3606  N     0.27778   0.25163   0.80085   0.03837  Uani   1.00
C3607  C     0.44301   0.49380   0.83035   0.04437  Uani   1.00
C3608  C     0.30177   0.25253   0.79393   0.05277  Uani   1.00
C3609  C     0.35943   0.25565   0.79278   0.06813  Uani   1.00
C3610  C     0.38528   0.25528   0.79270   0.07560  Uani   1.00
N3611  N     0.28314   0.25400   0.94873   0.03357  Uani   1.00
N3612  N     0.47222   0.49837   0.92585   0.03837  Uani   1.00
C3613  C     0.30699   0.25620   0.95535   0.04437  Uani   1.00
C3614  C     0.44822   0.49747   0.91893   0.05277  Uani   1.00
C3615  C     0.39057   0.49435   0.91778   0.06813  Uani   1.00
C3616  C     0.36472   0.49472   0.91770   0.07560  Uani   1.00
N3617  N     0.25400   0.46686   0.88623   0.03357  Uani   1.00
N3618  N     0.49838   0.27779   0.86335   0.03837  Uani   1.00
C3619  C     0.25620   0.44301   0.89285   0.04437  Uani   1.00
C3620  C     0.49748   0.30178   0.85643   0.05277  Uani   1.00
C3621  C     0.49435   0.35943   0.85528   0.06813  Uani   1.00
C3622  C     0.49473   0.38528   0.85520   0.07560  Uani   1.00
N3623  N     0.49600   0.28314   0.76123   0.03357  Uani   1.00
N3624  N     0.25163   0.47221   0.98835   0.03837  Uani   1.00
C3625  C     0.49380   0.30699   0.76785   0.04437  Uani   1.00
C3626  C     0.25253   0.44823   0.98143   0.05277  Uani   1.00
C3627  C     0.25565   0.39058   0.98028   0.06813  Uani   1.00
C3628  C     0.25528   0.36472   0.98020   0.07560  Uani   1.00
N3629  N     0.28314   0.49600   0.92627   0.03357  Uani   1.00
N3630  N     0.47222   0.25163   0.94915   0.03837  Uani   1.00
C3631  C     0.30699   0.49380   0.91965   0.04437  Uani   1.00
C3632  C     0.44822   0.25253   0.95608   0.05277  Uani   1.00
C3633  C     0.39057   0.25565   0.95723   0.06813  Uani   1.00
C3634  C     0.36472   0.25528   0.95730   0.07560  Uani   1.00
N3635  N     0.46686   0.25400   0.80127   0.03357  Uani   1.00
N3636  N     0.27778   0.49837   0.82415   0.03837  Uani   1.00
C3637  C     0.44301   0.25620   0.79465   0.04437  Uani   1.00
C3638  C     0.30177   0.49747   0.83108   0.05277  Uani   1.00
C3639  C     0.35943   0.49435   0.83223   0.06813  Uani   1.00
C3640  C     0.38528   0.49472   0.83230   0.07560  Uani   1.00
N3641  N     0.49600   0.46686   0.86377   0.03357  Uani   1.00
N3642  N     0.25163   0.27779   0.88665   0.03837  Uani   1.00
C3643  C     0.49380   0.44301   0.85715   0.04437  Uani   1.00
C3644  C     0.25253   0.30178   0.89358   0.05277  Uani   1.00
C3645  C     0.25565   0.35943   0.89473   0.06813  Uani   1.00
C3646  C     0.25528   0.38528   0.89480   0.07560  Uani   1.00
N3647  N     0.25400   0.28314   0.98877   0.03357  Uani   1.00
N3648  N     0.49838   0.47221   0.76165   0.03837  Uani   1.00
C3649  C     0.25620   0.30699   0.98215   0.04437  Uani   1.00
C3650  C     0.49748   0.44823   0.76858   0.05277  Uani   1.00
C3651  C     0.49435   0.39058   0.76973   0.06813  Uani   1.00
C3652  C     0.49473   0.36472   0.76980   0.07560  Uani   1.00
Co3653 Co    0.49721   0.49721   0.84375   0.02543  Uani   1.00
Co3654 Co    0.25279   0.25279   0.96875   0.02543  Uani   1.00
Co3655 Co    0.25279   0.49721   0.90625   0.02543  Uani   1.00
Co3656 Co    0.49721   0.25279   0.78125   0.02543  Uani   1.00
C3657  C     0.31790   0.25000   0.81250   0.04747  Uani   1.00
C3658  C     0.42678   0.25000   0.81250   0.04137  Uani   1.00
C3659  C     0.39888   0.25000   0.81250   0.05083  Uani   1.00
C3660  C     0.34598   0.25000   0.81250   0.05433  Uani   1.00
C3661  C     0.43210   0.25000   0.93750   0.04747  Uani   1.00
C3662  C     0.32322   0.25000   0.93750   0.04137  Uani   1.00
C3663  C     0.35112   0.25000   0.93750   0.05083  Uani   1.00
C3664  C     0.40403   0.25000   0.93750   0.05433  Uani   1.00
C3665  C     0.25000   0.31790   0.87500   0.04747  Uani   1.00
C3666  C     0.25000   0.42678   0.87500   0.04137  Uani   1.00
C3667  C     0.25000   0.39888   0.87500   0.05083  Uani   1.00
C3668  C     0.25000   0.34598   0.87500   0.05433  Uani   1.00
C3669  C     0.25000   0.43210   0.75000   0.04747  Uani   1.00
C3670  C     0.25000   0.32322   0.75000   0.04137  Uani   1.00
C3671  C     0.25000   0.35112   0.75000   0.05083  Uani   1.00
C3672  C     0.25000   0.40402   0.75000   0.05433  Uani   1.00
N3673  N     0.71686   0.49600   0.82373   0.03357  Uani   1.00
N3674  N     0.52779   0.25163   0.80085   0.03837  Uani   1.00
C3675  C     0.69301   0.49380   0.83035   0.04437  Uani   1.00
C3676  C     0.55178   0.25253   0.79393   0.05277  Uani   1.00
C3677  C     0.60943   0.25565   0.79278   0.06813  Uani   1.00
C3678  C     0.63528   0.25528   0.79270   0.07560  Uani   1.00
N3679  N     0.53314   0.25400   0.94873   0.03357  Uani   1.00
N3680  N     0.72222   0.49837   0.92585   0.03837  Uani   1.00
C3681  C     0.55699   0.25620   0.95535   0.04437  Uani   1.00
C3682  C     0.69823   0.49747   0.91893   0.05277  Uani   1.00
C3683  C     0.64058   0.49435   0.91778   0.06813  Uani   1.00
C3684  C     0.61473   0.49472   0.91770   0.07560  Uani   1.00
N3685  N     0.50400   0.46686   0.88623   0.03357  Uani   1.00
N3686  N     0.74837   0.27779   0.86335   0.03837  Uani   1.00
C3687  C     0.50620   0.44301   0.89285   0.04437  Uani   1.00
C3688  C     0.74748   0.30178   0.85643   0.05277  Uani   1.00
C3689  C     0.74435   0.35943   0.85528   0.06813  Uani   1.00
C3690  C     0.74473   0.38528   0.85520   0.07560  Uani   1.00
N3691  N     0.74600   0.28314   0.76123   0.03357  Uani   1.00
N3692  N     0.50163   0.47221   0.98835   0.03837  Uani   1.00
C3693  C     0.74380   0.30699   0.76785   0.04437  Uani   1.00
C3694  C     0.50253   0.44823   0.98143   0.05277  Uani   1.00
C3695  C     0.50565   0.39058   0.98028   0.06813  Uani   1.00
C3696  C     0.50528   0.36472   0.98020   0.07560  Uani   1.00
N3697  N     0.53314   0.49600   0.92627   0.03357  Uani   1.00
N3698  N     0.72222   0.25163   0.94915   0.03837  Uani   1.00
C3699  C     0.55699   0.49380   0.91965   0.04437  Uani   1.00
C3700  C     0.69823   0.25253   0.95608   0.05277  Uani   1.00
C3701  C     0.64058   0.25565   0.95723   0.06813  Uani   1.00
C3702  C     0.61473   0.25528   0.95730   0.07560  Uani   1.00
N3703  N     0.71686   0.25400   0.80127   0.03357  Uani   1.00
N3704  N     0.52779   0.49837   0.82415   0.03837  Uani   1.00
C3705  C     0.69301   0.25620   0.79465   0.04437  Uani   1.00
C3706  C     0.55178   0.49747   0.83108   0.05277  Uani   1.00
C3707  C     0.60943   0.49435   0.83223   0.06813  Uani   1.00
C3708  C     0.63528   0.49472   0.83230   0.07560  Uani   1.00
N3709  N     0.74600   0.46686   0.86377   0.03357  Uani   1.00
N3710  N     0.50163   0.27779   0.88665   0.03837  Uani   1.00
C3711  C     0.74380   0.44301   0.85715   0.04437  Uani   1.00
C3712  C     0.50253   0.30178   0.89358   0.05277  Uani   1.00
C3713  C     0.50565   0.35943   0.89473   0.06813  Uani   1.00
C3714  C     0.50528   0.38528   0.89480   0.07560  Uani   1.00
N3715  N     0.50400   0.28314   0.98877   0.03357  Uani   1.00
N3716  N     0.74837   0.47221   0.76165   0.03837  Uani   1.00
C3717  C     0.50620   0.30699   0.98215   0.04437  Uani   1.00
C3718  C     0.74748   0.44823   0.76858   0.05277  Uani   1.00
C3719  C     0.74435   0.39058   0.76973   0.06813  Uani   1.00
C3720  C     0.74473   0.36472   0.76980   0.07560  Uani   1.00
Co3721 Co    0.74721   0.49721   0.84375   0.02543  Uani   1.00
Co3722 Co    0.50279   0.25279   0.96875   0.02543  Uani   1.00
Co3723 Co    0.50279   0.49721   0.90625   0.02543  Uani   1.00
Co3724 Co    0.74721   0.25279   0.78125   0.02543  Uani   1.00
C3725  C     0.56790   0.25000   0.81250   0.04747  Uani   1.00
C3726  C     0.67678   0.25000   0.81250   0.04137  Uani   1.00
C3727  C     0.64888   0.25000   0.81250   0.05083  Uani   1.00
C3728  C     0.59598   0.25000   0.81250   0.05433  Uani   1.00
C3729  C     0.68210   0.25000   0.93750   0.04747  Uani   1.00
C3730  C     0.57322   0.25000   0.93750   0.04137  Uani   1.00
C3731  C     0.60112   0.25000   0.93750   0.05083  Uani   1.00
C3732  C     0.65402   0.25000   0.93750   0.05433  Uani   1.00
C3733  C     0.50000   0.31790   0.87500   0.04747  Uani   1.00
C3734  C     0.50000   0.42678   0.87500   0.04137  Uani   1.00
C3735  C     0.50000   0.39888   0.87500   0.05083  Uani   1.00
C3736  C     0.50000   0.34598   0.87500   0.05433  Uani   1.00
C3737  C     0.50000   0.43210   0.75000   0.04747  Uani   1.00
C3738  C     0.50000   0.32322   0.75000   0.04137  Uani   1.00
C3739  C     0.50000   0.35112   0.75000   0.05083  Uani   1.00
C3740  C     0.50000   0.40402   0.75000   0.05433  Uani   1.00
N3741  N     0.96686   0.49600   0.82373   0.03357  Uani   1.00
N3742  N     0.77779   0.25163   0.80085   0.03837  Uani   1.00
C3743  C     0.94301   0.49380   0.83035   0.04437  Uani   1.00
C3744  C     0.80178   0.25253   0.79393   0.05277  Uani   1.00
C3745  C     0.85943   0.25565   0.79278   0.06813  Uani   1.00
C3746  C     0.88528   0.25528   0.79270   0.07560  Uani   1.00
N3747  N     0.78314   0.25400   0.94873   0.03357  Uani   1.00
N3748  N     0.97222   0.49837   0.92585   0.03837  Uani   1.00
C3749  C     0.80699   0.25620   0.95535   0.04437  Uani   1.00
C3750  C     0.94823   0.49747   0.91893   0.05277  Uani   1.00
C3751  C     0.89058   0.49435   0.91778   0.06813  Uani   1.00
C3752  C     0.86472   0.49472   0.91770   0.07560  Uani   1.00
N3753  N     0.75400   0.46686   0.88623   0.03357  Uani   1.00
N3754  N     0.99838   0.27779   0.86335   0.03837  Uani   1.00
C3755  C     0.75620   0.44301   0.89285   0.04437  Uani   1.00
C3756  C     0.99748   0.30178   0.85643   0.05277  Uani   1.00
C3757  C     0.99435   0.35943   0.85528   0.06813  Uani   1.00
C3758  C     0.99473   0.38528   0.85520   0.07560  Uani   1.00
N3759  N     0.99600   0.28314   0.76123   0.03357  Uani   1.00
N3760  N     0.75163   0.47221   0.98835   0.03837  Uani   1.00
C3761  C     0.99380   0.30699   0.76785   0.04437  Uani   1.00
C3762  C     0.75253   0.44823   0.98143   0.05277  Uani   1.00
C3763  C     0.75565   0.39058   0.98028   0.06813  Uani   1.00
C3764  C     0.75528   0.36472   0.98020   0.07560  Uani   1.00
N3765  N     0.78314   0.49600   0.92627   0.03357  Uani   1.00
N3766  N     0.97222   0.25163   0.94915   0.03837  Uani   1.00
C3767  C     0.80699   0.49380   0.91965   0.04437  Uani   1.00
C3768  C     0.94823   0.25253   0.95608   0.05277  Uani   1.00
C3769  C     0.89058   0.25565   0.95723   0.06813  Uani   1.00
C3770  C     0.86472   0.25528   0.95730   0.07560  Uani   1.00
N3771  N     0.96686   0.25400   0.80127   0.03357  Uani   1.00
N3772  N     0.77779   0.49837   0.82415   0.03837  Uani   1.00
C3773  C     0.94301   0.25620   0.79465   0.04437  Uani   1.00
C3774  C     0.80178   0.49747   0.83108   0.05277  Uani   1.00
C3775  C     0.85943   0.49435   0.83223   0.06813  Uani   1.00
C3776  C     0.88528   0.49472   0.83230   0.07560  Uani   1.00
N3777  N     0.99600   0.46686   0.86377   0.03357  Uani   1.00
N3778  N     0.75163   0.27779   0.88665   0.03837  Uani   1.00
C3779  C     0.99380   0.44301   0.85715   0.04437  Uani   1.00
C3780  C     0.75253   0.30178   0.89358   0.05277  Uani   1.00
C3781  C     0.75565   0.35943   0.89473   0.06813  Uani   1.00
C3782  C     0.75528   0.38528   0.89480   0.07560  Uani   1.00
N3783  N     0.75400   0.28314   0.98877   0.03357  Uani   1.00
N3784  N     0.99838   0.47221   0.76165   0.03837  Uani   1.00
C3785  C     0.75620   0.30699   0.98215   0.04437  Uani   1.00
C3786  C     0.99748   0.44823   0.76858   0.05277  Uani   1.00
C3787  C     0.99435   0.39058   0.76973   0.06813  Uani   1.00
C3788  C     0.99473   0.36472   0.76980   0.07560  Uani   1.00
Co3789 Co    0.99721   0.49721   0.84375   0.02543  Uani   1.00
Co3790 Co    0.75279   0.25279   0.96875   0.02543  Uani   1.00
Co3791 Co    0.75279   0.49721   0.90625   0.02543  Uani   1.00
Co3792 Co    0.99721   0.25279   0.78125   0.02543  Uani   1.00
C3793  C     0.81790   0.25000   0.81250   0.04747  Uani   1.00
C3794  C     0.92678   0.25000   0.81250   0.04137  Uani   1.00
C3795  C     0.89888   0.25000   0.81250   0.05083  Uani   1.00
C3796  C     0.84598   0.25000   0.81250   0.05433  Uani   1.00
C3797  C     0.93210   0.25000   0.93750   0.04747  Uani   1.00
C3798  C     0.82322   0.25000   0.93750   0.04137  Uani   1.00
C3799  C     0.85113   0.25000   0.93750   0.05083  Uani   1.00
C3800  C     0.90403   0.25000   0.93750   0.05433  Uani   1.00
C3801  C     0.75000   0.31790   0.87500   0.04747  Uani   1.00
C3802  C     0.75000   0.42678   0.87500   0.04137  Uani   1.00
C3803  C     0.75000   0.39888   0.87500   0.05083  Uani   1.00
C3804  C     0.75000   0.34598   0.87500   0.05433  Uani   1.00
C3805  C     0.75000   0.43210   0.75000   0.04747  Uani   1.00
C3806  C     0.75000   0.32322   0.75000   0.04137  Uani   1.00
C3807  C     0.75000   0.35112   0.75000   0.05083  Uani   1.00
C3808  C     0.75000   0.40402   0.75000   0.05433  Uani   1.00
N3809  N     0.21686   0.74600   0.82373   0.03357  Uani   1.00
N3810  N     0.02778   0.50163   0.80085   0.03837  Uani   1.00
C3811  C     0.19301   0.74380   0.83035   0.04437  Uani   1.00
C3812  C     0.05177   0.50253   0.79393   0.05277  Uani   1.00
C3813  C     0.10943   0.50565   0.79278   0.06813  Uani   1.00
C3814  C     0.13528   0.50528   0.79270   0.07560  Uani   1.00
N3815  N     0.03314   0.50400   0.94873   0.03357  Uani   1.00
N3816  N     0.22221   0.74837   0.92585   0.03837  Uani   1.00
C3817  C     0.05699   0.50620   0.95535   0.04437  Uani   1.00
C3818  C     0.19823   0.74747   0.91893   0.05277  Uani   1.00
C3819  C     0.14057   0.74435   0.91778   0.06813  Uani   1.00
C3820  C     0.11472   0.74472   0.91770   0.07560  Uani   1.00
N3821  N     0.00400   0.71686   0.88623   0.03357  Uani   1.00
N3822  N     0.24837   0.52779   0.86335   0.03837  Uani   1.00
C3823  C     0.00620   0.69301   0.89285   0.04437  Uani   1.00
C3824  C     0.24748   0.55178   0.85643   0.05277  Uani   1.00
C3825  C     0.24435   0.60943   0.85528   0.06813  Uani   1.00
C3826  C     0.24473   0.63528   0.85520   0.07560  Uani   1.00
N3827  N     0.24600   0.53314   0.76123   0.03357  Uani   1.00
N3828  N     0.00163   0.72221   0.98835   0.03837  Uani   1.00
C3829  C     0.24380   0.55699   0.76785   0.04437  Uani   1.00
C3830  C     0.00253   0.69823   0.98143   0.05277  Uani   1.00
C3831  C     0.00565   0.64058   0.98028   0.06813  Uani   1.00
C3832  C     0.00528   0.61472   0.98020   0.07560  Uani   1.00
N3833  N     0.03314   0.74600   0.92627   0.03357  Uani   1.00
N3834  N     0.22221   0.50163   0.94915   0.03837  Uani   1.00
C3835  C     0.05699   0.74380   0.91965   0.04437  Uani   1.00
C3836  C     0.19823   0.50253   0.95608   0.05277  Uani   1.00
C3837  C     0.14057   0.50565   0.95723   0.06813  Uani   1.00
C3838  C     0.11472   0.50528   0.95730   0.07560  Uani   1.00
N3839  N     0.21686   0.50400   0.80127   0.03357  Uani   1.00
N3840  N     0.02778   0.74837   0.82415   0.03837  Uani   1.00
C3841  C     0.19301   0.50620   0.79465   0.04437  Uani   1.00
C3842  C     0.05177   0.74747   0.83108   0.05277  Uani   1.00
C3843  C     0.10943   0.74435   0.83223   0.06813  Uani   1.00
C3844  C     0.13528   0.74472   0.83230   0.07560  Uani   1.00
N3845  N     0.24600   0.71686   0.86377   0.03357  Uani   1.00
N3846  N     0.00163   0.52779   0.88665   0.03837  Uani   1.00
C3847  C     0.24380   0.69301   0.85715   0.04437  Uani   1.00
C3848  C     0.00253   0.55178   0.89358   0.05277  Uani   1.00
C3849  C     0.00565   0.60943   0.89473   0.06813  Uani   1.00
C3850  C     0.00528   0.63528   0.89480   0.07560  Uani   1.00
N3851  N     0.00400   0.53314   0.98877   0.03357  Uani   1.00
N3852  N     0.24837   0.72221   0.76165   0.03837  Uani   1.00
C3853  C     0.00620   0.55699   0.98215   0.04437  Uani   1.00
C3854  C     0.24748   0.69823   0.76858   0.05277  Uani   1.00
C3855  C     0.24435   0.64058   0.76973   0.06813  Uani   1.00
C3856  C     0.24473   0.61472   0.76980   0.07560  Uani   1.00
Co3857 Co    0.24721   0.74721   0.84375   0.02543  Uani   1.00
Co3858 Co    0.00279   0.50279   0.96875   0.02543  Uani   1.00
Co3859 Co    0.00279   0.74721   0.90625   0.02543  Uani   1.00
Co3860 Co    0.24721   0.50279   0.78125   0.02543  Uani   1.00
C3861  C     0.06790   0.50000   0.81250   0.04747  Uani   1.00
C3862  C     0.17678   0.50000   0.81250   0.04137  Uani   1.00
C3863  C     0.14888   0.50000   0.81250   0.05083  Uani   1.00
C3864  C     0.09598   0.50000   0.81250   0.05433  Uani   1.00
C3865  C     0.18210   0.50000   0.93750   0.04747  Uani   1.00
C3866  C     0.07322   0.50000   0.93750   0.04137  Uani   1.00
C3867  C     0.10112   0.50000   0.93750   0.05083  Uani   1.00
C3868  C     0.15402   0.50000   0.93750   0.05433  Uani   1.00
C3869  C     0.00000   0.56790   0.87500   0.04747  Uani   1.00
C3870  C     0.00000   0.67678   0.87500   0.04137  Uani   1.00
C3871  C     0.00000   0.64888   0.87500   0.05083  Uani   1.00
C3872  C     0.00000   0.59598   0.87500   0.05433  Uani   1.00
C3873  C     0.00000   0.68210   0.75000   0.04747  Uani   1.00
C3874  C     0.00000   0.57322   0.75000   0.04137  Uani   1.00
C3875  C     0.00000   0.60112   0.75000   0.05083  Uani   1.00
C3876  C     0.00000   0.65402   0.75000   0.05433  Uani   1.00
N3877  N     0.46686   0.74600   0.82373   0.03357  Uani   1.00
N3878  N     0.27778   0.50163   0.80085   0.03837  Uani   1.00
C3879  C     0.44301   0.74380   0.83035   0.04437  Uani   1.00
C3880  C     0.30177   0.50253   0.79393   0.05277  Uani   1.00
C3881  C     0.35943   0.50565   0.79278   0.06813  Uani   1.00
C3882  C     0.38528   0.50528   0.79270   0.07560  Uani   1.00
N3883  N     0.28314   0.50400   0.94873   0.03357  Uani   1.00
N3884  N     0.47222   0.74837   0.92585   0.03837  Uani   1.00
C3885  C     0.30699   0.50620   0.95535   0.04437  Uani   1.00
C3886  C     0.44822   0.74747   0.91893   0.05277  Uani   1.00
C3887  C     0.39057   0.74435   0.91778   0.06813  Uani   1.00
C3888  C     0.36472   0.74472   0.91770   0.07560  Uani   1.00
N3889  N     0.25400   0.71686   0.88623   0.03357  Uani   1.00
N3890  N     0.49838   0.52779   0.86335   0.03837  Uani   1.00
C3891  C     0.25620   0.69301   0.89285   0.04437  Uani   1.00
C3892  C     0.49748   0.55178   0.85643   0.05277  Uani   1.00
C3893  C     0.49435   0.60943   0.85528   0.06813  Uani   1.00
C3894  C     0.49473   0.63528   0.85520   0.07560  Uani   1.00
N3895  N     0.49600   0.53314   0.76123   0.03357  Uani   1.00
N3896  N     0.25163   0.72221   0.98835   0.03837  Uani   1.00
C3897  C     0.49380   0.55699   0.76785   0.04437  Uani   1.00
C3898  C     0.25253   0.69823   0.98143   0.05277  Uani   1.00
C3899  C     0.25565   0.64058   0.98028   0.06813  Uani   1.00
C3900  C     0.25528   0.61472   0.98020   0.07560  Uani   1.00
N3901  N     0.28314   0.74600   0.92627   0.03357  Uani   1.00
N3902  N     0.47222   0.50163   0.94915   0.03837  Uani   1.00
C3903  C     0.30699   0.74380   0.91965   0.04437  Uani   1.00
C3904  C     0.44822   0.50253   0.95608   0.05277  Uani   1.00
C3905  C     0.39057   0.50565   0.95723   0.06813  Uani   1.00
C3906  C     0.36472   0.50528   0.95730   0.07560  Uani   1.00
N3907  N     0.46686   0.50400   0.80127   0.03357  Uani   1.00
N3908  N     0.27778   0.74837   0.82415   0.03837  Uani   1.00
C3909  C     0.44301   0.50620   0.79465   0.04437  Uani   1.00
C3910  C     0.30177   0.74747   0.83108   0.05277  Uani   1.00
C3911  C     0.35943   0.74435   0.83223   0.06813  Uani   1.00
C3912  C     0.38528   0.74472   0.83230   0.07560  Uani   1.00
N3913  N     0.49600   0.71686   0.86377   0.03357  Uani   1.00
N3914  N     0.25163   0.52779   0.88665   0.03837  Uani   1.00
C3915  C     0.49380   0.69301   0.85715   0.04437  Uani   1.00
C3916  C     0.25253   0.55178   0.89358   0.05277  Uani   1.00
C3917  C     0.25565   0.60943   0.89473   0.06813  Uani   1.00
C3918  C     0.25528   0.63528   0.89480   0.07560  Uani   1.00
N3919  N     0.25400   0.53314   0.98877   0.03357  Uani   1.00
N3920  N     0.49838   0.72221   0.76165   0.03837  Uani   1.00
C3921  C     0.25620   0.55699   0.98215   0.04437  Uani   1.00
C3922  C     0.49748   0.69823   0.76858   0.05277  Uani   1.00
C3923  C     0.49435   0.64058   0.76973   0.06813  Uani   1.00
C3924  C     0.49473   0.61472   0.76980   0.07560  Uani   1.00
Co3925 Co    0.49721   0.74721   0.84375   0.02543  Uani   1.00
Co3926 Co    0.25279   0.50279   0.96875   0.02543  Uani   1.00
Co3927 Co    0.25279   0.74721   0.90625   0.02543  Uani   1.00
Co3928 Co    0.49721   0.50279   0.78125   0.02543  Uani   1.00
C3929  C     0.31790   0.50000   0.81250   0.04747  Uani   1.00
C3930  C     0.42678   0.50000   0.81250   0.04137  Uani   1.00
C3931  C     0.39888   0.50000   0.81250   0.05083  Uani   1.00
C3932  C     0.34598   0.50000   0.81250   0.05433  Uani   1.00
C3933  C     0.43210   0.50000   0.93750   0.04747  Uani   1.00
C3934  C     0.32322   0.50000   0.93750   0.04137  Uani   1.00
C3935  C     0.35112   0.50000   0.93750   0.05083  Uani   1.00
C3936  C     0.40403   0.50000   0.93750   0.05433  Uani   1.00
C3937  C     0.25000   0.56790   0.87500   0.04747  Uani   1.00
C3938  C     0.25000   0.67678   0.87500   0.04137  Uani   1.00
C3939  C     0.25000   0.64888   0.87500   0.05083  Uani   1.00
C3940  C     0.25000   0.59598   0.87500   0.05433  Uani   1.00
C3941  C     0.25000   0.68210   0.75000   0.04747  Uani   1.00
C3942  C     0.25000   0.57322   0.75000   0.04137  Uani   1.00
C3943  C     0.25000   0.60112   0.75000   0.05083  Uani   1.00
C3944  C     0.25000   0.65402   0.75000   0.05433  Uani   1.00
N3945  N     0.71686   0.74600   0.82373   0.03357  Uani   1.00
N3946  N     0.52779   0.50163   0.80085   0.03837  Uani   1.00
C3947  C     0.69301   0.74380   0.83035   0.04437  Uani   1.00
C3948  C     0.55178   0.50253   0.79393   0.05277  Uani   1.00
C3949  C     0.60943   0.50565   0.79278   0.06813  Uani   1.00
C3950  C     0.63528   0.50528   0.79270   0.07560  Uani   1.00
N3951  N     0.53314   0.50400   0.94873   0.03357  Uani   1.00
N3952  N     0.72222   0.74837   0.92585   0.03837  Uani   1.00
C3953  C     0.55699   0.50620   0.95535   0.04437  Uani   1.00
C3954  C     0.69823   0.74747   0.91893   0.05277  Uani   1.00
C3955  C     0.64058   0.74435   0.91778   0.06813  Uani   1.00
C3956  C     0.61473   0.74472   0.91770   0.07560  Uani   1.00
N3957  N     0.50400   0.71686   0.88623   0.03357  Uani   1.00
N3958  N     0.74837   0.52779   0.86335   0.03837  Uani   1.00
C3959  C     0.50620   0.69301   0.89285   0.04437  Uani   1.00
C3960  C     0.74748   0.55178   0.85643   0.05277  Uani   1.00
C3961  C     0.74435   0.60943   0.85528   0.06813  Uani   1.00
C3962  C     0.74473   0.63528   0.85520   0.07560  Uani   1.00
N3963  N     0.74600   0.53314   0.76123   0.03357  Uani   1.00
N3964  N     0.50163   0.72221   0.98835   0.03837  Uani   1.00
C3965  C     0.74380   0.55699   0.76785   0.04437  Uani   1.00
C3966  C     0.50253   0.69823   0.98143   0.05277  Uani   1.00
C3967  C     0.50565   0.64058   0.98028   0.06813  Uani   1.00
C3968  C     0.50528   0.61472   0.98020   0.07560  Uani   1.00
N3969  N     0.53314   0.74600   0.92627   0.03357  Uani   1.00
N3970  N     0.72222   0.50163   0.94915   0.03837  Uani   1.00
C3971  C     0.55699   0.74380   0.91965   0.04437  Uani   1.00
C3972  C     0.69823   0.50253   0.95608   0.05277  Uani   1.00
C3973  C     0.64058   0.50565   0.95723   0.06813  Uani   1.00
C3974  C     0.61473   0.50528   0.95730   0.07560  Uani   1.00
N3975  N     0.71686   0.50400   0.80127   0.03357  Uani   1.00
N3976  N     0.52779   0.74837   0.82415   0.03837  Uani   1.00
C3977  C     0.69301   0.50620   0.79465   0.04437  Uani   1.00
C3978  C     0.55178   0.74747   0.83108   0.05277  Uani   1.00
C3979  C     0.60943   0.74435   0.83223   0.06813  Uani   1.00
C3980  C     0.63528   0.74472   0.83230   0.07560  Uani   1.00
N3981  N     0.74600   0.71686   0.86377   0.03357  Uani   1.00
N3982  N     0.50163   0.52779   0.88665   0.03837  Uani   1.00
C3983  C     0.74380   0.69301   0.85715   0.04437  Uani   1.00
C3984  C     0.50253   0.55178   0.89358   0.05277  Uani   1.00
C3985  C     0.50565   0.60943   0.89473   0.06813  Uani   1.00
C3986  C     0.50528   0.63528   0.89480   0.07560  Uani   1.00
N3987  N     0.50400   0.53314   0.98877   0.03357  Uani   1.00
N3988  N     0.74837   0.72221   0.76165   0.03837  Uani   1.00
C3989  C     0.50620   0.55699   0.98215   0.04437  Uani   1.00
C3990  C     0.74748   0.69823   0.76858   0.05277  Uani   1.00
C3991  C     0.74435   0.64058   0.76973   0.06813  Uani   1.00
C3992  C     0.74473   0.61472   0.76980   0.07560  Uani   1.00
Co3993 Co    0.74721   0.74721   0.84375   0.02543  Uani   1.00
Co3994 Co    0.50279   0.50279   0.96875   0.02543  Uani   1.00
Co3995 Co    0.50279   0.74721   0.90625   0.02543  Uani   1.00
Co3996 Co    0.74721   0.50279   0.78125   0.02543  Uani   1.00
C3997  C     0.56790   0.50000   0.81250   0.04747  Uani   1.00
C3998  C     0.67678   0.50000   0.81250   0.04137  Uani   1.00
C3999  C     0.64888   0.50000   0.81250   0.05083  Uani   1.00
C4000  C     0.59598   0.50000   0.81250   0.05433  Uani   1.00
C4001  C     0.68210   0.50000   0.93750   0.04747  Uani   1.00
C4002  C     0.57322   0.50000   0.93750   0.04137  Uani   1.00
C4003  C     0.60112   0.50000   0.93750   0.05083  Uani   1.00
C4004  C     0.65402   0.50000   0.93750   0.05433  Uani   1.00
C4005  C     0.50000   0.56790   0.87500   0.04747  Uani   1.00
C4006  C     0.50000   0.67678   0.87500   0.04137  Uani   1.00
C4007  C     0.50000   0.64888   0.87500   0.05083  Uani   1.00
C4008  C     0.50000   0.59598   0.87500   0.05433  Uani   1.00
C4009  C     0.50000   0.68210   0.75000   0.04747  Uani   1.00
C4010  C     0.50000   0.57322   0.75000   0.04137  Uani   1.00
C4011  C     0.50000   0.60112   0.75000   0.05083  Uani   1.00
C4012  C     0.50000   0.65402   0.75000   0.05433  Uani   1.00
N4013  N     0.96686   0.74600   0.82373   0.03357  Uani   1.00
N4014  N     0.77779   0.50163   0.80085   0.03837  Uani   1.00
C4015  C     0.94301   0.74380   0.83035   0.04437  Uani   1.00
C4016  C     0.80178   0.50253   0.79393   0.05277  Uani   1.00
C4017  C     0.85943   0.50565   0.79278   0.06813  Uani   1.00
C4018  C     0.88528   0.50528   0.79270   0.07560  Uani   1.00
N4019  N     0.78314   0.50400   0.94873   0.03357  Uani   1.00
N4020  N     0.97222   0.74837   0.92585   0.03837  Uani   1.00
C4021  C     0.80699   0.50620   0.95535   0.04437  Uani   1.00
C4022  C     0.94823   0.74747   0.91893   0.05277  Uani   1.00
C4023  C     0.89058   0.74435   0.91778   0.06813  Uani   1.00
C4024  C     0.86472   0.74472   0.91770   0.07560  Uani   1.00
N4025  N     0.75400   0.71686   0.88623   0.03357  Uani   1.00
N4026  N     0.99838   0.52779   0.86335   0.03837  Uani   1.00
C4027  C     0.75620   0.69301   0.89285   0.04437  Uani   1.00
C4028  C     0.99748   0.55178   0.85643   0.05277  Uani   1.00
C4029  C     0.99435   0.60943   0.85528   0.06813  Uani   1.00
C4030  C     0.99473   0.63528   0.85520   0.07560  Uani   1.00
N4031  N     0.99600   0.53314   0.76123   0.03357  Uani   1.00
N4032  N     0.75163   0.72221   0.98835   0.03837  Uani   1.00
C4033  C     0.99380   0.55699   0.76785   0.04437  Uani   1.00
C4034  C     0.75253   0.69823   0.98143   0.05277  Uani   1.00
C4035  C     0.75565   0.64058   0.98028   0.06813  Uani   1.00
C4036  C     0.75528   0.61472   0.98020   0.07560  Uani   1.00
N4037  N     0.78314   0.74600   0.92627   0.03357  Uani   1.00
N4038  N     0.97222   0.50163   0.94915   0.03837  Uani   1.00
C4039  C     0.80699   0.74380   0.91965   0.04437  Uani   1.00
C4040  C     0.94823   0.50253   0.95608   0.05277  Uani   1.00
C4041  C     0.89058   0.50565   0.95723   0.06813  Uani   1.00
C4042  C     0.86472   0.50528   0.95730   0.07560  Uani   1.00
N4043  N     0.96686   0.50400   0.80127   0.03357  Uani   1.00
N4044  N     0.77779   0.74837   0.82415   0.03837  Uani   1.00
C4045  C     0.94301   0.50620   0.79465   0.04437  Uani   1.00
C4046  C     0.80178   0.74747   0.83108   0.05277  Uani   1.00
C4047  C     0.85943   0.74435   0.83223   0.06813  Uani   1.00
C4048  C     0.88528   0.74472   0.83230   0.07560  Uani   1.00
N4049  N     0.99600   0.71686   0.86377   0.03357  Uani   1.00
N4050  N     0.75163   0.52779   0.88665   0.03837  Uani   1.00
C4051  C     0.99380   0.69301   0.85715   0.04437  Uani   1.00
C4052  C     0.75253   0.55178   0.89358   0.05277  Uani   1.00
C4053  C     0.75565   0.60943   0.89473   0.06813  Uani   1.00
C4054  C     0.75528   0.63528   0.89480   0.07560  Uani   1.00
N4055  N     0.75400   0.53314   0.98877   0.03357  Uani   1.00
N4056  N     0.99838   0.72221   0.76165   0.03837  Uani   1.00
C4057  C     0.75620   0.55699   0.98215   0.04437  Uani   1.00
C4058  C     0.99748   0.69823   0.76858   0.05277  Uani   1.00
C4059  C     0.99435   0.64058   0.76973   0.06813  Uani   1.00
C4060  C     0.99473   0.61472   0.76980   0.07560  Uani   1.00
Co4061 Co    0.99721   0.74721   0.84375   0.02543  Uani   1.00
Co4062 Co    0.75279   0.50279   0.96875   0.02543  Uani   1.00
Co4063 Co    0.75279   0.74721   0.90625   0.02543  Uani   1.00
Co4064 Co    0.99721   0.50279   0.78125   0.02543  Uani   1.00
C4065  C     0.81790   0.50000   0.81250   0.04747  Uani   1.00
C4066  C     0.92678   0.50000   0.81250   0.04137  Uani   1.00
C4067  C     0.89888   0.50000   0.81250   0.05083  Uani   1.00
C4068  C     0.84598   0.50000   0.81250   0.05433  Uani   1.00
C4069  C     0.93210   0.50000   0.93750   0.04747  Uani   1.00
C4070  C     0.82322   0.50000   0.93750   0.04137  Uani   1.00
C4071  C     0.85113   0.50000   0.93750   0.05083  Uani   1.00
C4072  C     0.90403   0.50000   0.93750   0.05433  Uani   1.00
C4073  C     0.75000   0.56790   0.87500   0.04747  Uani   1.00
C4074  C     0.75000   0.67678   0.87500   0.04137  Uani   1.00
C4075  C     0.75000   0.64888   0.87500   0.05083  Uani   1.00
C4076  C     0.75000   0.59598   0.87500   0.05433  Uani   1.00
C4077  C     0.75000   0.68210   0.75000   0.04747  Uani   1.00
C4078  C     0.75000   0.57322   0.75000   0.04137  Uani   1.00
C4079  C     0.75000   0.60112   0.75000   0.05083  Uani   1.00
C4080  C     0.75000   0.65402   0.75000   0.05433  Uani   1.00
N4081  N     0.21686   0.99600   0.82373   0.03357  Uani   1.00
N4082  N     0.02778   0.75163   0.80085   0.03837  Uani   1.00
C4083  C     0.19301   0.99380   0.83035   0.04437  Uani   1.00
C4084  C     0.05177   0.75253   0.79393   0.05277  Uani   1.00
C4085  C     0.10943   0.75565   0.79278   0.06813  Uani   1.00
C4086  C     0.13528   0.75528   0.79270   0.07560  Uani   1.00
N4087  N     0.03314   0.75400   0.94873   0.03357  Uani   1.00
N4088  N     0.22221   0.99837   0.92585   0.03837  Uani   1.00
C4089  C     0.05699   0.75620   0.95535   0.04437  Uani   1.00
C4090  C     0.19823   0.99747   0.91893   0.05277  Uani   1.00
C4091  C     0.14057   0.99435   0.91778   0.06813  Uani   1.00
C4092  C     0.11472   0.99473   0.91770   0.07560  Uani   1.00
N4093  N     0.00400   0.96686   0.88623   0.03357  Uani   1.00
N4094  N     0.24837   0.77779   0.86335   0.03837  Uani   1.00
C4095  C     0.00620   0.94301   0.89285   0.04437  Uani   1.00
C4096  C     0.24748   0.80178   0.85643   0.05277  Uani   1.00
C4097  C     0.24435   0.85943   0.85528   0.06813  Uani   1.00
C4098  C     0.24473   0.88528   0.85520   0.07560  Uani   1.00
N4099  N     0.24600   0.78314   0.76123   0.03357  Uani   1.00
N4100  N     0.00163   0.97221   0.98835   0.03837  Uani   1.00
C4101  C     0.24380   0.80699   0.76785   0.04437  Uani   1.00
C4102  C     0.00253   0.94823   0.98143   0.05277  Uani   1.00
C4103  C     0.00565   0.89058   0.98028   0.06813  Uani   1.00
C4104  C     0.00528   0.86472   0.98020   0.07560  Uani   1.00
N4105  N     0.03314   0.99600   0.92627   0.03357  Uani   1.00
N4106  N     0.22221   0.75163   0.94915   0.03837  Uani   1.00
C4107  C     0.05699   0.99380   0.91965   0.04437  Uani   1.00
C4108  C     0.19823   0.75253   0.95608   0.05277  Uani   1.00
C4109  C     0.14057   0.75565   0.95723   0.06813  Uani   1.00
C4110  C     0.11472   0.75528   0.95730   0.07560  Uani   1.00
N4111  N     0.21686   0.75400   0.80127   0.03357  Uani   1.00
N4112  N     0.02778   0.99837   0.82415   0.03837  Uani   1.00
C4113  C     0.19301   0.75620   0.79465   0.04437  Uani   1.00
C4114  C     0.05177   0.99747   0.83108   0.05277  Uani   1.00
C4115  C     0.10943   0.99435   0.83223   0.06813  Uani   1.00
C4116  C     0.13528   0.99473   0.83230   0.07560  Uani   1.00
N4117  N     0.24600   0.96686   0.86377   0.03357  Uani   1.00
N4118  N     0.00163   0.77779   0.88665   0.03837  Uani   1.00
C4119  C     0.24380   0.94301   0.85715   0.04437  Uani   1.00
C4120  C     0.00253   0.80178   0.89358   0.05277  Uani   1.00
C4121  C     0.00565   0.85943   0.89473   0.06813  Uani   1.00
C4122  C     0.00528   0.88528   0.89480   0.07560  Uani   1.00
N4123  N     0.00400   0.78314   0.98877   0.03357  Uani   1.00
N4124  N     0.24837   0.97221   0.76165   0.03837  Uani   1.00
C4125  C     0.00620   0.80699   0.98215   0.04437  Uani   1.00
C4126  C     0.24748   0.94823   0.76858   0.05277  Uani   1.00
C4127  C     0.24435   0.89058   0.76973   0.06813  Uani   1.00
C4128  C     0.24473   0.86472   0.76980   0.07560  Uani   1.00
Co4129 Co    0.24721   0.99721   0.84375   0.02543  Uani   1.00
Co4130 Co    0.00279   0.75279   0.96875   0.02543  Uani   1.00
Co4131 Co    0.00279   0.99721   0.90625   0.02543  Uani   1.00
Co4132 Co    0.24721   0.75279   0.78125   0.02543  Uani   1.00
C4133  C     0.06790   0.75000   0.81250   0.04747  Uani   1.00
C4134  C     0.17678   0.75000   0.81250   0.04137  Uani   1.00
C4135  C     0.14888   0.75000   0.81250   0.05083  Uani   1.00
C4136  C     0.09598   0.75000   0.81250   0.05433  Uani   1.00
C4137  C     0.18210   0.75000   0.93750   0.04747  Uani   1.00
C4138  C     0.07322   0.75000   0.93750   0.04137  Uani   1.00
C4139  C     0.10112   0.75000   0.93750   0.05083  Uani   1.00
C4140  C     0.15402   0.75000   0.93750   0.05433  Uani   1.00
C4141  C     0.00000   0.81790   0.87500   0.04747  Uani   1.00
C4142  C     0.00000   0.92678   0.87500   0.04137  Uani   1.00
C4143  C     0.00000   0.89888   0.87500   0.05083  Uani   1.00
C4144  C     0.00000   0.84598   0.87500   0.05433  Uani   1.00
C4145  C     0.00000   0.93210   0.75000   0.04747  Uani   1.00
C4146  C     0.00000   0.82322   0.75000   0.04137  Uani   1.00
C4147  C     0.00000   0.85112   0.75000   0.05083  Uani   1.00
C4148  C     0.00000   0.90402   0.75000   0.05433  Uani   1.00
N4149  N     0.46686   0.99600   0.82373   0.03357  Uani   1.00
N4150  N     0.27778   0.75163   0.80085   0.03837  Uani   1.00
C4151  C     0.44301   0.99380   0.83035   0.04437  Uani   1.00
C4152  C     0.30177   0.75253   0.79393   0.05277  Uani   1.00
C4153  C     0.35943   0.75565   0.79278   0.06813  Uani   1.00
C4154  C     0.38528   0.75528   0.79270   0.07560  Uani   1.00
N4155  N     0.28314   0.75400   0.94873   0.03357  Uani   1.00
N4156  N     0.47222   0.99837   0.92585   0.03837  Uani   1.00
C4157  C     0.30699   0.75620   0.95535   0.04437  Uani   1.00
C4158  C     0.44822   0.99747   0.91893   0.05277  Uani   1.00
C4159  C     0.39057   0.99435   0.91778   0.06813  Uani   1.00
C4160  C     0.36472   0.99473   0.91770   0.07560  Uani   1.00
N4161  N     0.25400   0.96686   0.88623   0.03357  Uani   1.00
N4162  N     0.49838   0.77779   0.86335   0.03837  Uani   1.00
C4163  C     0.25620   0.94301   0.89285   0.04437  Uani   1.00
C4164  C     0.49748   0.80178   0.85643   0.05277  Uani   1.00
C4165  C     0.49435   0.85943   0.85528   0.06813  Uani   1.00
C4166  C     0.49473   0.88528   0.85520   0.07560  Uani   1.00
N4167  N     0.49600   0.78314   0.76123   0.03357  Uani   1.00
N4168  N     0.25163   0.97221   0.98835   0.03837  Uani   1.00
C4169  C     0.49380   0.80699   0.76785   0.04437  Uani   1.00
C4170  C     0.25253   0.94823   0.98143   0.05277  Uani   1.00
C4171  C     0.25565   0.89058   0.98028   0.06813  Uani   1.00
C4172  C     0.25528   0.86472   0.98020   0.07560  Uani   1.00
N4173  N     0.28314   0.99600   0.92627   0.03357  Uani   1.00
N4174  N     0.47222   0.75163   0.94915   0.03837  Uani   1.00
C4175  C     0.30699   0.99380   0.91965   0.04437  Uani   1.00
C4176  C     0.44822   0.75253   0.95608   0.05277  Uani   1.00
C4177  C     0.39057   0.75565   0.95723   0.06813  Uani   1.00
C4178  C     0.36472   0.75528   0.95730   0.07560  Uani   1.00
N4179  N     0.46686   0.75400   0.80127   0.03357  Uani   1.00
N4180  N     0.27778   0.99837   0.82415   0.03837  Uani   1.00
C4181  C     0.44301   0.75620   0.79465   0.04437  Uani   1.00
C4182  C     0.30177   0.99747   0.83108   0.05277  Uani   1.00
C4183  C     0.35943   0.99435   0.83223   0.06813  Uani   1.00
C4184  C     0.38528   0.99473   0.83230   0.07560  Uani   1.00
N4185  N     0.49600   0.96686   0.86377   0.03357  Uani   1.00
N4186  N     0.25163   0.77779   0.88665   0.03837  Uani   1.00
C4187  C     0.49380   0.94301   0.85715   0.04437  Uani   1.00
C4188  C     0.25253   0.80178   0.89358   0.05277  Uani   1.00
C4189  C     0.25565   0.85943   0.89473   0.06813  Uani   1.00
C4190  C     0.25528   0.88528   0.89480   0.07560  Uani   1.00
N4191  N     0.25400   0.78314   0.98877   0.03357  Uani   1.00
N4192  N     0.49838   0.97221   0.76165   0.03837  Uani   1.00
C4193  C     0.25620   0.80699   0.98215   0.04437  Uani   1.00
C4194  C     0.49748   0.94823   0.76858   0.05277  Uani   1.00
C4195  C     0.49435   0.89058   0.76973   0.06813  Uani   1.00
C4196  C     0.49473   0.86472   0.76980   0.07560  Uani   1.00
Co4197 Co    0.49721   0.99721   0.84375   0.02543  Uani   1.00
Co4198 Co    0.25279   0.75279   0.96875   0.02543  Uani   1.00
Co4199 Co    0.25279   0.99721   0.90625   0.02543  Uani   1.00
Co4200 Co    0.49721   0.75279   0.78125   0.02543  Uani   1.00
C4201  C     0.31790   0.75000   0.81250   0.04747  Uani   1.00
C4202  C     0.42678   0.75000   0.81250   0.04137  Uani   1.00
C4203  C     0.39888   0.75000   0.81250   0.05083  Uani   1.00
C4204  C     0.34598   0.75000   0.81250   0.05433  Uani   1.00
C4205  C     0.43210   0.75000   0.93750   0.04747  Uani   1.00
C4206  C     0.32322   0.75000   0.93750   0.04137  Uani   1.00
C4207  C     0.35112   0.75000   0.93750   0.05083  Uani   1.00
C4208  C     0.40403   0.75000   0.93750   0.05433  Uani   1.00
C4209  C     0.25000   0.81790   0.87500   0.04747  Uani   1.00
C4210  C     0.25000   0.92678   0.87500   0.04137  Uani   1.00
C4211  C     0.25000   0.89888   0.87500   0.05083  Uani   1.00
C4212  C     0.25000   0.84598   0.87500   0.05433  Uani   1.00
C4213  C     0.25000   0.93210   0.75000   0.04747  Uani   1.00
C4214  C     0.25000   0.82322   0.75000   0.04137  Uani   1.00
C4215  C     0.25000   0.85112   0.75000   0.05083  Uani   1.00
C4216  C     0.25000   0.90402   0.75000   0.05433  Uani   1.00
N4217  N     0.71686   0.99600   0.82373   0.03357  Uani   1.00
N4218  N     0.52779   0.75163   0.80085   0.03837  Uani   1.00
C4219  C     0.69301   0.99380   0.83035   0.04437  Uani   1.00
C4220  C     0.55178   0.75253   0.79393   0.05277  Uani   1.00
C4221  C     0.60943   0.75565   0.79278   0.06813  Uani   1.00
C4222  C     0.63528   0.75528   0.79270   0.07560  Uani   1.00
N4223  N     0.53314   0.75400   0.94873   0.03357  Uani   1.00
N4224  N     0.72222   0.99837   0.92585   0.03837  Uani   1.00
C4225  C     0.55699   0.75620   0.95535   0.04437  Uani   1.00
C4226  C     0.69823   0.99747   0.91893   0.05277  Uani   1.00
C4227  C     0.64058   0.99435   0.91778   0.06813  Uani   1.00
C4228  C     0.61473   0.99473   0.91770   0.07560  Uani   1.00
N4229  N     0.50400   0.96686   0.88623   0.03357  Uani   1.00
N4230  N     0.74837   0.77779   0.86335   0.03837  Uani   1.00
C4231  C     0.50620   0.94301   0.89285   0.04437  Uani   1.00
C4232  C     0.74748   0.80178   0.85643   0.05277  Uani   1.00
C4233  C     0.74435   0.85943   0.85528   0.06813  Uani   1.00
C4234  C     0.74473   0.88528   0.85520   0.07560  Uani   1.00
N4235  N     0.74600   0.78314   0.76123   0.03357  Uani   1.00
N4236  N     0.50163   0.97221   0.98835   0.03837  Uani   1.00
C4237  C     0.74380   0.80699   0.76785   0.04437  Uani   1.00
C4238  C     0.50253   0.94823   0.98143   0.05277  Uani   1.00
C4239  C     0.50565   0.89058   0.98028   0.06813  Uani   1.00
C4240  C     0.50528   0.86472   0.98020   0.07560  Uani   1.00
N4241  N     0.53314   0.99600   0.92627   0.03357  Uani   1.00
N4242  N     0.72222   0.75163   0.94915   0.03837  Uani   1.00
C4243  C     0.55699   0.99380   0.91965   0.04437  Uani   1.00
C4244  C     0.69823   0.75253   0.95608   0.05277  Uani   1.00
C4245  C     0.64058   0.75565   0.95723   0.06813  Uani   1.00
C4246  C     0.61473   0.75528   0.95730   0.07560  Uani   1.00
N4247  N     0.71686   0.75400   0.80127   0.03357  Uani   1.00
N4248  N     0.52779   0.99837   0.82415   0.03837  Uani   1.00
C4249  C     0.69301   0.75620   0.79465   0.04437  Uani   1.00
C4250  C     0.55178   0.99747   0.83108   0.05277  Uani   1.00
C4251  C     0.60943   0.99435   0.83223   0.06813  Uani   1.00
C4252  C     0.63528   0.99473   0.83230   0.07560  Uani   1.00
N4253  N     0.74600   0.96686   0.86377   0.03357  Uani   1.00
N4254  N     0.50163   0.77779   0.88665   0.03837  Uani   1.00
C4255  C     0.74380   0.94301   0.85715   0.04437  Uani   1.00
C4256  C     0.50253   0.80178   0.89358   0.05277  Uani   1.00
C4257  C     0.50565   0.85943   0.89473   0.06813  Uani   1.00
C4258  C     0.50528   0.88528   0.89480   0.07560  Uani   1.00
N4259  N     0.50400   0.78314   0.98877   0.03357  Uani   1.00
N4260  N     0.74837   0.97221   0.76165   0.03837  Uani   1.00
C4261  C     0.50620   0.80699   0.98215   0.04437  Uani   1.00
C4262  C     0.74748   0.94823   0.76858   0.05277  Uani   1.00
C4263  C     0.74435   0.89058   0.76973   0.06813  Uani   1.00
C4264  C     0.74473   0.86472   0.76980   0.07560  Uani   1.00
Co4265 Co    0.74721   0.99721   0.84375   0.02543  Uani   1.00
Co4266 Co    0.50279   0.75279   0.96875   0.02543  Uani   1.00
Co4267 Co    0.50279   0.99721   0.90625   0.02543  Uani   1.00
Co4268 Co    0.74721   0.75279   0.78125   0.02543  Uani   1.00
C4269  C     0.56790   0.75000   0.81250   0.04747  Uani   1.00
C4270  C     0.67678   0.75000   0.81250   0.04137  Uani   1.00
C4271  C     0.64888   0.75000   0.81250   0.05083  Uani   1.00
C4272  C     0.59598   0.75000   0.81250   0.05433  Uani   1.00
C4273  C     0.68210   0.75000   0.93750   0.04747  Uani   1.00
C4274  C     0.57322   0.75000   0.93750   0.04137  Uani   1.00
C4275  C     0.60112   0.75000   0.93750   0.05083  Uani   1.00
C4276  C     0.65402   0.75000   0.93750   0.05433  Uani   1.00
C4277  C     0.50000   0.81790   0.87500   0.04747  Uani   1.00
C4278  C     0.50000   0.92678   0.87500   0.04137  Uani   1.00
C4279  C     0.50000   0.89888   0.87500   0.05083  Uani   1.00
C4280  C     0.50000   0.84598   0.87500   0.05433  Uani   1.00
C4281  C     0.50000   0.93210   0.75000   0.04747  Uani   1.00
C4282  C     0.50000   0.82322   0.75000   0.04137  Uani   1.00
C4283  C     0.50000   0.85112   0.75000   0.05083  Uani   1.00
C4284  C     0.50000   0.90402   0.75000   0.05433  Uani   1.00
N4285  N     0.96686   0.99600   0.82373   0.03357  Uani   1.00
N4286  N     0.77779   0.75163   0.80085   0.03837  Uani   1.00
C4287  C     0.94301   0.99380   0.83035   0.04437  Uani   1.00
C4288  C     0.80178   0.75253   0.79393   0.05277  Uani   1.00
C4289  C     0.85943   0.75565   0.79278   0.06813  Uani   1.00
C4290  C     0.88528   0.75528   0.79270   0.07560  Uani   1.00
N4291  N     0.78314   0.75400   0.94873   0.03357  Uani   1.00
N4292  N     0.97222   0.99837   0.92585   0.03837  Uani   1.00
C4293  C     0.80699   0.75620   0.95535   0.04437  Uani   1.00
C4294  C     0.94823   0.99747   0.91893   0.05277  Uani   1.00
C4295  C     0.89058   0.99435   0.91778   0.06813  Uani   1.00
C4296  C     0.86472   0.99473   0.91770   0.07560  Uani   1.00
N4297  N     0.75400   0.96686   0.88623   0.03357  Uani   1.00
N4298  N     0.99838   0.77779   0.86335   0.03837  Uani   1.00
C4299  C     0.75620   0.94301   0.89285   0.04437  Uani   1.00
C4300  C     0.99748   0.80178   0.85643   0.05277  Uani   1.00
C4301  C     0.99435   0.85943   0.85528   0.06813  Uani   1.00
C4302  C     0.99473   0.88528   0.85520   0.07560  Uani   1.00
N4303  N     0.99600   0.78314   0.76123   0.03357  Uani   1.00
N4304  N     0.75163   0.97221   0.98835   0.03837  Uani   1.00
C4305  C     0.99380   0.80699   0.76785   0.04437  Uani   1.00
C4306  C     0.75253   0.94823   0.98143   0.05277  Uani   1.00
C4307  C     0.75565   0.89058   0.98028   0.06813  Uani   1.00
C4308  C     0.75528   0.86472   0.98020   0.07560  Uani   1.00
N4309  N     0.78314   0.99600   0.92627   0.03357  Uani   1.00
N4310  N     0.97222   0.75163   0.94915   0.03837  Uani   1.00
C4311  C     0.80699   0.99380   0.91965   0.04437  Uani   1.00
C4312  C     0.94823   0.75253   0.95608   0.05277  Uani   1.00
C4313  C     0.89058   0.75565   0.95723   0.06813  Uani   1.00
C4314  C     0.86472   0.75528   0.95730   0.07560  Uani   1.00
N4315  N     0.96686   0.75400   0.80127   0.03357  Uani   1.00
N4316  N     0.77779   0.99837   0.82415   0.03837  Uani   1.00
C4317  C     0.94301   0.75620   0.79465   0.04437  Uani   1.00
C4318  C     0.80178   0.99747   0.83108   0.05277  Uani   1.00
C4319  C     0.85943   0.99435   0.83223   0.06813  Uani   1.00
C4320  C     0.88528   0.99473   0.83230   0.07560  Uani   1.00
N4321  N     0.99600   0.96686   0.86377   0.03357  Uani   1.00
N4322  N     0.75163   0.77779   0.88665   0.03837  Uani   1.00
C4323  C     0.99380   0.94301   0.85715   0.04437  Uani   1.00
C4324  C     0.75253   0.80178   0.89358   0.05277  Uani   1.00
C4325  C     0.75565   0.85943   0.89473   0.06813  Uani   1.00
C4326  C     0.75528   0.88528   0.89480   0.07560  Uani   1.00
N4327  N     0.75400   0.78314   0.98877   0.03357  Uani   1.00
N4328  N     0.99838   0.97221   0.76165   0.03837  Uani   1.00
C4329  C     0.75620   0.80699   0.98215   0.04437  Uani   1.00
C4330  C     0.99748   0.94823   0.76858   0.05277  Uani   1.00
C4331  C     0.99435   0.89058   0.76973   0.06813  Uani   1.00
C4332  C     0.99473   0.86472   0.76980   0.07560  Uani   1.00
Co4333 Co    0.99721   0.99721   0.84375   0.02543  Uani   1.00
Co4334 Co    0.75279   0.75279   0.96875   0.02543  Uani   1.00
Co4335 Co    0.75279   0.99721   0.90625   0.02543  Uani   1.00
Co4336 Co    0.99721   0.75279   0.78125   0.02543  Uani   1.00
C4337  C     0.81790   0.75000   0.81250   0.04747  Uani   1.00
C4338  C     0.92678   0.75000   0.81250   0.04137  Uani   1.00
C4339  C     0.89888   0.75000   0.81250   0.05083  Uani   1.00
C4340  C     0.84598   0.75000   0.81250   0.05433  Uani   1.00
C4341  C     0.93210   0.75000   0.93750   0.04747  Uani   1.00
C4342  C     0.82322   0.75000   0.93750   0.04137  Uani   1.00
C4343  C     0.85113   0.75000   0.93750   0.05083  Uani   1.00
C4344  C     0.90403   0.75000   0.93750   0.05433  Uani   1.00
C4345  C     0.75000   0.81790   0.87500   0.04747  Uani   1.00
C4346  C     0.75000   0.92678   0.87500   0.04137  Uani   1.00
C4347  C     0.75000   0.89888   0.87500   0.05083  Uani   1.00
C4348  C     0.75000   0.84598   0.87500   0.05433  Uani   1.00
C4349  C     0.75000   0.93210   0.75000   0.04747  Uani   1.00
C4350  C     0.75000   0.82322   0.75000   0.04137  Uani   1.00
C4351  C     0.75000   0.85112   0.75000   0.05083  Uani   1.00
C4352  C     0.75000   0.90402   0.75000   0.05433  Uani   1.00
loop_
_atom_site_aniso_label
_atom_site_aniso_U_11
_atom_site_aniso_U_22
_atom_site_aniso_U_33
_atom_site_aniso_U_12
_atom_site_aniso_U_13
_atom_site_aniso_U_23
N1        0.02330   0.04710   0.03030  -0.00200  -0.00030   0.00130
N2        0.02450   0.05650   0.03410  -0.00140   0.00040   0.00230
C3        0.02400   0.07500   0.03410  -0.00840   0.00570   0.01140
C4        0.02660   0.09300   0.03870   0.00000   0.00480   0.00300
C5        0.02540   0.13000   0.04900   0.00200  -0.00310   0.02800
C6        0.02480   0.15200   0.05000   0.00000  -0.00010   0.01500
N7        0.02330   0.04710   0.03030  -0.00200   0.00030  -0.00130
N8        0.02450   0.05650   0.03410  -0.00140  -0.00040  -0.00230
C9        0.02400   0.07500   0.03410  -0.00840  -0.00570  -0.01140
C10       0.02660   0.09300   0.03870   0.00000  -0.00480  -0.00300
C11       0.02540   0.13000   0.04900   0.00200   0.00310  -0.02800
C12       0.02480   0.15200   0.05000   0.00000   0.00010  -0.01500
N13       0.04710   0.02330   0.03030   0.00200  -0.00130  -0.00030
N14       0.05650   0.02450   0.03410   0.00140  -0.00230   0.00040
C15       0.07500   0.02400   0.03410   0.00840  -0.01140   0.00570
C16       0.09300   0.02660   0.03870   0.00000  -0.00300   0.00480
C17       0.13000   0.02540   0.04900  -0.00200  -0.02800  -0.00310
C18       0.15200   0.02480   0.05000   0.00000  -0.01500  -0.00010
N19       0.04710   0.02330   0.03030   0.00200   0.00130   0.00030
N20       0.05650   0.02450   0.03410   0.00140   0.00230  -0.00040
C21       0.07500   0.02400   0.03410   0.00840   0.01140  -0.00570
C22       0.09300   0.02660   0.03870   0.00000   0.00300  -0.00480
C23       0.13000   0.02540   0.04900  -0.00200   0.02800   0.00310
C24       0.15200   0.02480   0.05000   0.00000   0.01500   0.00010
N25       0.02330   0.04710   0.03030   0.00200  -0.00030  -0.00130
N26       0.02450   0.05650   0.03410   0.00140   0.00040  -0.00230
C27       0.02400   0.07500   0.03410   0.00840   0.00570  -0.01140
C28       0.02660   0.09300   0.03870   0.00000   0.00480  -0.00300
C29       0.02540   0.13000   0.04900  -0.00200  -0.00310  -0.02800
C30       0.02480   0.15200   0.05000   0.00000  -0.00010  -0.01500
N31       0.02330   0.04710   0.03030   0.00200   0.00030   0.00130
N32       0.02450   0.05650   0.03410   0.00140  -0.00040   0.00230
C33       0.02400   0.07500   0.03410   0.00840  -0.00570   0.01140
C34       0.02660   0.09300   0.03870   0.00000  -0.00480   0.00300
C35       0.02540   0.13000   0.04900  -0.00200   0.00310   0.02800
C36       0.02480   0.15200   0.05000   0.00000   0.00010   0.01500
N37       0.04710   0.02330   0.03030  -0.00200  -0.00130   0.00030
N38       0.05650   0.02450   0.03410  -0.00140  -0.00230  -0.00040
C39       0.07500   0.02400   0.03410  -0.00840  -0.01140  -0.00570
C40       0.09300   0.02660   0.03870   0.00000  -0.00300  -0.00480
C41       0.13000   0.02540   0.04900   0.00200  -0.02800   0.00310
C42       0.15200   0.02480   0.05000   0.00000  -0.01500   0.00010
N43       0.04710   0.02330   0.03030  -0.00200   0.00130  -0.00030
N44       0.05650   0.02450   0.03410  -0.00140   0.00230   0.00040
C45       0.07500   0.02400   0.03410  -0.00840   0.01140   0.00570
C46       0.09300   0.02660   0.03870   0.00000   0.00300   0.00480
C47       0.13000   0.02540   0.04900   0.00200   0.02800  -0.00310
C48       0.15200   0.02480   0.05000   0.00000   0.01500  -0.00010
Co49      0.02490   0.02490   0.02650  -0.00028  -0.00071   0.00071
Co50      0.02490   0.02490   0.02650  -0.00028   0.00071  -0.00071
Co51      0.02490   0.02490   0.02650   0.00028  -0.00071  -0.00071
Co52      0.02490   0.02490   0.02650   0.00028   0.00071   0.00071
C53       0.01940   0.07600   0.04700   0.00000   0.00000   0.01000
C54       0.02310   0.06200   0.03900   0.00000   0.00000   0.00900
C55       0.02250   0.08400   0.04600   0.00000   0.00000   0.03100
C56       0.02300   0.08800   0.05200   0.00000   0.00000  -0.00900
C57       0.01940   0.07600   0.04700   0.00000   0.00000  -0.01000
C58       0.02310   0.06200   0.03900   0.00000   0.00000  -0.00900
C59       0.02250   0.08400   0.04600   0.00000   0.00000  -0.03100
C60       0.02300   0.08800   0.05200   0.00000   0.00000   0.00900
C61       0.07600   0.01940   0.04700   0.00000  -0.01000   0.00000
C62       0.06200   0.02310   0.03900   0.00000  -0.00900   0.00000
C63       0.08400   0.02250   0.04600   0.00000  -0.03100   0.00000
C64       0.08800   0.02300   0.05200   0.00000   0.00900   0.00000
C65       0.07600   0.01940   0.04700   0.00000   0.01000   0.00000
C66       0.06200   0.02310   0.03900   0.00000   0.00900   0.00000
C67       0.08400   0.02250   0.04600   0.00000   0.03100   0.00000
C68       0.08800   0.02300   0.05200   0.00000  -0.00900   0.00000
N69       0.02330   0.04710   0.03030  -0.00200  -0.00030   0.00130
N70       0.02450   0.05650   0.03410  -0.00140   0.00040   0.00230
C71       0.02400   0.07500   0.03410  -0.00840   0.00570   0.01140
C72       0.02660   0.09300   0.03870   0.00000   0.00480   0.00300
C73       0.02540   0.13000   0.04900   0.00200  -0.00310   0.02800
C74       0.02480   0.15200   0.05000   0.00000  -0.00010   0.01500
N75       0.02330   0.04710   0.03030  -0.00200   0.00030  -0.00130
N76       0.02450   0.05650   0.03410  -0.00140  -0.00040  -0.00230
C77       0.02400   0.07500   0.03410  -0.00840  -0.00570  -0.01140
C78       0.02660   0.09300   0.03870   0.00000  -0.00480  -0.00300
C79       0.02540   0.13000   0.04900   0.00200   0.00310  -0.02800
C80       0.02480   0.15200   0.05000   0.00000   0.00010  -0.01500
N81       0.04710   0.02330   0.03030   0.00200  -0.00130  -0.00030
N82       0.05650   0.02450   0.03410   0.00140  -0.00230   0.00040
C83       0.07500   0.02400   0.03410   0.00840  -0.01140   0.00570
C84       0.09300   0.02660   0.03870   0.00000  -0.00300   0.00480
C85       0.13000   0.02540   0.04900  -0.00200  -0.02800  -0.00310
C86       0.15200   0.02480   0.05000   0.00000  -0.01500  -0.00010
N87       0.04710   0.02330   0.03030   0.00200   0.00130   0.00030
N88       0.05650   0.02450   0.03410   0.00140   0.00230  -0.00040
C89       0.07500   0.02400   0.03410   0.00840   0.01140  -0.00570
C90       0.09300   0.02660   0.03870   0.00000   0.00300  -0.00480
C91       0.13000   0.02540   0.04900  -0.00200   0.02800   0.00310
C92       0.15200   0.02480   0.05000   0.00000   0.01500   0.00010
N93       0.02330   0.04710   0.03030   0.00200  -0.00030  -0.00130
N94       0.02450   0.05650   0.03410   0.00140   0.00040  -0.00230
C95       0.02400   0.07500   0.03410   0.00840   0.00570  -0.01140
C96       0.02660   0.09300   0.03870   0.00000   0.00480  -0.00300
C97       0.02540   0.13000   0.04900  -0.00200  -0.00310  -0.02800
C98       0.02480   0.15200   0.05000   0.00000  -0.00010  -0.01500
N99       0.02330   0.04710   0.03030   0.00200   0.00030   0.00130
N100      0.02450   0.05650   0.03410   0.00140  -0.00040   0.00230
C101      0.02400   0.07500   0.03410   0.00840  -0.00570   0.01140
C102      0.02660   0.09300   0.03870   0.00000  -0.00480   0.00300
C103      0.02540   0.13000   0.04900  -0.00200   0.00310   0.02800
C104      0.02480   0.15200   0.05000   0.00000   0.00010   0.01500
N105      0.04710   0.02330   0.03030  -0.00200  -0.00130   0.00030
N106      0.05650   0.02450   0.03410  -0.00140  -0.00230  -0.00040
C107      0.07500   0.02400   0.03410  -0.00840  -0.01140  -0.00570
C108      0.09300   0.02660   0.03870   0.00000  -0.00300  -0.00480
C109      0.13000   0.02540   0.04900   0.00200  -0.02800   0.00310
C110      0.15200   0.02480   0.05000   0.00000  -0.01500   0.00010
N111      0.04710   0.02330   0.03030  -0.00200   0.00130  -0.00030
N112      0.05650   0.02450   0.03410  -0.00140   0.00230   0.00040
C113      0.07500   0.02400   0.03410  -0.00840   0.01140   0.00570
C114      0.09300   0.02660   0.03870   0.00000   0.00300   0.00480
C115      0.13000   0.02540   0.04900   0.00200   0.02800  -0.00310
C116      0.15200   0.02480   0.05000   0.00000   0.01500  -0.00010
Co117     0.02490   0.02490   0.02650  -0.00028  -0.00071   0.00071
Co118     0.02490   0.02490   0.02650  -0.00028   0.00071  -0.00071
Co119     0.02490   0.02490   0.02650   0.00028  -0.00071  -0.00071
Co120     0.02490   0.02490   0.02650   0.00028   0.00071   0.00071
C121      0.01940   0.07600   0.04700   0.00000   0.00000   0.01000
C122      0.02310   0.06200   0.03900   0.00000   0.00000   0.00900
C123      0.02250   0.08400   0.04600   0.00000   0.00000   0.03100
C124      0.02300   0.08800   0.05200   0.00000   0.00000  -0.00900
C125      0.01940   0.07600   0.04700   0.00000   0.00000  -0.01000
C126      0.02310   0.06200   0.03900   0.00000   0.00000  -0.00900
C127      0.02250   0.08400   0.04600   0.00000   0.00000  -0.03100
C128      0.02300   0.08800   0.05200   0.00000   0.00000   0.00900
C129      0.07600   0.01940   0.04700   0.00000  -0.01000   0.00000
C130      0.06200   0.02310   0.03900   0.00000  -0.00900   0.00000
C131      0.08400   0.02250   0.04600   0.00000  -0.03100   0.00000
C132      0.08800   0.02300   0.05200   0.00000   0.00900   0.00000
C133      0.07600   0.01940   0.04700   0.00000   0.01000   0.00000
C134      0.06200   0.02310   0.03900   0.00000   0.00900   0.00000
C135      0.08400   0.02250   0.04600   0.00000   0.03100   0.00000
C136      0.08800   0.02300   0.05200   0.00000  -0.00900   0.00000
N137      0.02330   0.04710   0.03030  -0.00200  -0.00030   0.00130
N138      0.02450   0.05650   0.03410  -0.00140   0.00040   0.00230
C139      0.02400   0.07500   0.03410  -0.00840   0.00570   0.01140
C140      0.02660   0.09300   0.03870   0.00000   0.00480   0.00300
C141      0.02540   0.13000   0.04900   0.00200  -0.00310   0.02800
C142      0.02480   0.15200   0.05000   0.00000  -0.00010   0.01500
N143      0.02330   0.04710   0.03030  -0.00200   0.00030  -0.00130
N144      0.02450   0.05650   0.03410  -0.00140  -0.00040  -0.00230
C145      0.02400   0.07500   0.03410  -0.00840  -0.00570  -0.01140
C146      0.02660   0.09300   0.03870   0.00000  -0.00480  -0.00300
C147      0.02540   0.13000   0.04900   0.00200   0.00310  -0.02800
C148      0.02480   0.15200   0.05000   0.00000   0.00010  -0.01500
N149      0.04710   0.02330   0.03030   0.00200  -0.00130  -0.00030
N150      0.05650   0.02450   0.03410   0.00140  -0.00230   0.00040
C151      0.07500   0.02400   0.03410   0.00840  -0.01140   0.00570
C152      0.09300   0.02660   0.03870   0.00000  -0.00300   0.00480
C153      0.13000   0.02540   0.04900  -0.00200  -0.02800  -0.00310
C154      0.15200   0.02480   0.05000   0.00000  -0.01500  -0.00010
N155      0.04710   0.02330   0.03030   0.00200   0.00130   0.00030
N156      0.05650   0.02450   0.03410   0.00140   0.00230  -0.00040
C157      0.07500   0.02400   0.03410   0.00840   0.01140  -0.00570
C158      0.09300   0.02660   0.03870   0.00000   0.00300  -0.00480
C159      0.13000   0.02540   0.04900  -0.00200   0.02800   0.00310
C160      0.15200   0.02480   0.05000   0.00000   0.01500   0.00010
N161      0.02330   0.04710   0.03030   0.00200  -0.00030  -0.00130
N162      0.02450   0.05650   0.03410   0.00140   0.00040  -0.00230
C163      0.02400   0.07500   0.03410   0.00840   0.00570  -0.01140
C164      0.02660   0.09300   0.03870   0.00000   0.00480  -0.00300
C165      0.02540   0.13000   0.04900  -0.00200  -0.00310  -0.02800
C166      0.02480   0.15200   0.05000   0.00000  -0.00010  -0.01500
N167      0.02330   0.04710   0.03030   0.00200   0.00030   0.00130
N168      0.02450   0.05650   0.03410   0.00140  -0.00040   0.00230
C169      0.02400   0.07500   0.03410   0.00840  -0.00570   0.01140
C170      0.02660   0.09300   0.03870   0.00000  -0.00480   0.00300
C171      0.02540   0.13000   0.04900  -0.00200   0.00310   0.02800
C172      0.02480   0.15200   0.05000   0.00000   0.00010   0.01500
N173      0.04710   0.02330   0.03030  -0.00200  -0.00130   0.00030
N174      0.05650   0.02450   0.03410  -0.00140  -0.00230  -0.00040
C175      0.07500   0.02400   0.03410  -0.00840  -0.01140  -0.00570
C176      0.09300   0.02660   0.03870   0.00000  -0.00300  -0.00480
C177      0.13000   0.02540   0.04900   0.00200  -0.02800   0.00310
C178      0.15200   0.02480   0.05000   0.00000  -0.01500   0.00010
N179      0.04710   0.02330   0.03030  -0.00200   0.00130  -0.00030
N180      0.05650   0.02450   0.03410  -0.00140   0.00230   0.00040
C181      0.07500   0.02400   0.03410  -0.00840   0.01140   0.00570
C182      0.09300   0.02660   0.03870   0.00000   0.00300   0.00480
C183      0.13000   0.02540   0.04900   0.00200   0.02800  -0.00310
C184      0.15200   0.02480   0.05000   0.00000   0.01500  -0.00010
Co185     0.02490   0.02490   0.02650  -0.00028  -0.00071   0.00071
Co186     0.02490   0.02490   0.02650  -0.00028   0.00071  -0.00071
Co187     0.02490   0.02490   0.02650   0.00028  -0.00071  -0.00071
Co188     0.02490   0.02490   0.02650   0.00028   0.00071   0.00071
C189      0.01940   0.07600   0.04700   0.00000   0.00000   0.01000
C190      0.02310   0.06200   0.03900   0.00000   0.00000   0.00900
C191      0.02250   0.08400   0.04600   0.00000   0.00000   0.03100
C192      0.02300   0.08800   0.05200   0.00000   0.00000  -0.00900
C193      0.01940   0.07600   0.04700   0.00000   0.00000  -0.01000
C194      0.02310   0.06200   0.03900   0.00000   0.00000  -0.00900
C195      0.02250   0.08400   0.04600   0.00000   0.00000  -0.03100
C196      0.02300   0.08800   0.05200   0.00000   0.00000   0.00900
C197      0.07600   0.01940   0.04700   0.00000  -0.01000   0.00000
C198      0.06200   0.02310   0.03900   0.00000  -0.00900   0.00000
C199      0.08400   0.02250   0.04600   0.00000  -0.03100   0.00000
C200      0.08800   0.02300   0.05200   0.00000   0.00900   0.00000
C201      0.07600   0.01940   0.04700   0.00000   0.01000   0.00000
C202      0.06200   0.02310   0.03900   0.00000   0.00900   0.00000
C203      0.08400   0.02250   0.04600   0.00000   0.03100   0.00000
C204      0.08800   0.02300   0.05200   0.00000  -0.00900   0.00000
N205      0.02330   0.04710   0.03030  -0.00200  -0.00030   0.00130
N206      0.02450   0.05650   0.03410  -0.00140   0.00040   0.00230
C207      0.02400   0.07500   0.03410  -0.00840   0.00570   0.01140
C208      0.02660   0.09300   0.03870   0.00000   0.00480   0.00300
C209      0.02540   0.13000   0.04900   0.00200  -0.00310   0.02800
C210      0.02480   0.15200   0.05000   0.00000  -0.00010   0.01500
N211      0.02330   0.04710   0.03030  -0.00200   0.00030  -0.00130
N212      0.02450   0.05650   0.03410  -0.00140  -0.00040  -0.00230
C213      0.02400   0.07500   0.03410  -0.00840  -0.00570  -0.01140
C214      0.02660   0.09300   0.03870   0.00000  -0.00480  -0.00300
C215      0.02540   0.13000   0.04900   0.00200   0.00310  -0.02800
C216      0.02480   0.15200   0.05000   0.00000   0.00010  -0.01500
N217      0.04710   0.02330   0.03030   0.00200  -0.00130  -0.00030
N218      0.05650   0.02450   0.03410   0.00140  -0.00230   0.00040
C219      0.07500   0.02400   0.03410   0.00840  -0.01140   0.00570
C220      0.09300   0.02660   0.03870   0.00000  -0.00300   0.00480
C221      0.13000   0.02540   0.04900  -0.00200  -0.02800  -0.00310
C222      0.15200   0.02480   0.05000   0.00000  -0.01500  -0.00010
N223      0.04710   0.02330   0.03030   0.00200   0.00130   0.00030
N224      0.05650   0.02450   0.03410   0.00140   0.00230  -0.00040
C225      0.07500   0.02400   0.03410   0.00840   0.01140  -0.00570
C226      0.09300   0.02660   0.03870   0.00000   0.00300  -0.00480
C227      0.13000   0.02540   0.04900  -0.00200   0.02800   0.00310
C228      0.15200   0.02480   0.05000   0.00000   0.01500   0.00010
N229      0.02330   0.04710   0.03030   0.00200  -0.00030  -0.00130
N230      0.02450   0.05650   0.03410   0.00140   0.00040  -0.00230
C231      0.02400   0.07500   0.03410   0.00840   0.00570  -0.01140
C232      0.02660   0.09300   0.03870   0.00000   0.00480  -0.00300
C233      0.02540   0.13000   0.04900  -0.00200  -0.00310  -0.02800
C234      0.02480   0.15200   0.05000   0.00000  -0.00010  -0.01500
N235      0.02330   0.04710   0.03030   0.00200   0.00030   0.00130
N236      0.02450   0.05650   0.03410   0.00140  -0.00040   0.00230
C237      0.02400   0.07500   0.03410   0.00840  -0.00570   0.01140
C238      0.02660   0.09300   0.03870   0.00000  -0.00480   0.00300
C239      0.02540   0.13000   0.04900  -0.00200   0.00310   0.02800
C240      0.02480   0.15200   0.05000   0.00000   0.00010   0.01500
N241      0.04710   0.02330   0.03030  -0.00200  -0.00130   0.00030
N242      0.05650   0.02450   0.03410  -0.00140  -0.00230  -0.00040
C243      0.07500   0.02400   0.03410  -0.00840  -0.01140  -0.00570
C244      0.09300   0.02660   0.03870   0.00000  -0.00300  -0.00480
C245      0.13000   0.02540   0.04900   0.00200  -0.02800   0.00310
C246      0.15200   0.02480   0.05000   0.00000  -0.01500   0.00010
N247      0.04710   0.02330   0.03030  -0.00200   0.00130  -0.00030
N248      0.05650   0.02450   0.03410  -0.00140   0.00230   0.00040
C249      0.07500   0.02400   0.03410  -0.00840   0.01140   0.00570
C250      0.09300   0.02660   0.03870   0.00000   0.00300   0.00480
C251      0.13000   0.02540   0.04900   0.00200   0.02800  -0.00310
C252      0.15200   0.02480   0.05000   0.00000   0.01500  -0.00010
Co253     0.02490   0.02490   0.02650  -0.00028  -0.00071   0.00071
Co254     0.02490   0.02490   0.02650  -0.00028   0.00071  -0.00071
Co255     0.02490   0.02490   0.02650   0.00028  -0.00071  -0.00071
Co256     0.02490   0.02490   0.02650   0.00028   0.00071   0.00071
C257      0.01940   0.07600   0.04700   0.00000   0.00000   0.01000
C258      0.02310   0.06200   0.03900   0.00000   0.00000   0.00900
C259      0.02250   0.08400   0.04600   0.00000   0.00000   0.03100
C260      0.02300   0.08800   0.05200   0.00000   0.00000  -0.00900
C261      0.01940   0.07600   0.04700   0.00000   0.00000  -0.01000
C262      0.02310   0.06200   0.03900   0.00000   0.00000  -0.00900
C263      0.02250   0.08400   0.04600   0.00000   0.00000  -0.03100
C264      0.02300   0.08800   0.05200   0.00000   0.00000   0.00900
C265      0.07600   0.01940   0.04700   0.00000  -0.01000   0.00000
C266      0.06200   0.02310   0.03900   0.00000  -0.00900   0.00000
C267      0.08400   0.02250   0.04600   0.00000  -0.03100   0.00000
C268      0.08800   0.02300   0.05200   0.00000   0.00900   0.00000
C269      0.07600   0.01940   0.04700   0.00000   0.01000   0.00000
C270      0.06200   0.02310   0.03900   0.00000   0.00900   0.00000
C271      0.08400   0.02250   0.04600   0.00000   0.03100   0.00000
C272      0.08800   0.02300   0.05200   0.00000  -0.00900   0.00000
N273      0.02330   0.04710   0.03030  -0.00200  -0.00030   0.00130
N274      0.02450   0.05650   0.03410  -0.00140   0.00040   0.00230
C275      0.02400   0.07500   0.03410  -0.00840   0.00570   0.01140
C276      0.02660   0.09300   0.03870   0.00000   0.00480   0.00300
C277      0.02540   0.13000   0.04900   0.00200  -0.00310   0.02800
C278      0.02480   0.15200   0.05000   0.00000  -0.00010   0.01500
N279      0.02330   0.04710   0.03030  -0.00200   0.00030  -0.00130
N280      0.02450   0.05650   0.03410  -0.00140  -0.00040  -0.00230
C281      0.02400   0.07500   0.03410  -0.00840  -0.00570  -0.01140
C282      0.02660   0.09300   0.03870   0.00000  -0.00480  -0.00300
C283      0.02540   0.13000   0.04900   0.00200   0.00310  -0.02800
C284      0.02480   0.15200   0.05000   0.00000   0.00010  -0.01500
N285      0.04710   0.02330   0.03030   0.00200  -0.00130  -0.00030
N286      0.05650   0.02450   0.03410   0.00140  -0.00230   0.00040
C287      0.07500   0.02400   0.03410   0.00840  -0.01140   0.00570
C288      0.09300   0.02660   0.03870   0.00000  -0.00300   0.00480
C289      0.13000   0.02540   0.04900  -0.00200  -0.02800  -0.00310
C290      0.15200   0.02480   0.05000   0.00000  -0.01500  -0.00010
N291      0.04710   0.02330   0.03030   0.00200   0.00130   0.00030
N292      0.05650   0.02450   0.03410   0.00140   0.00230  -0.00040
C293      0.07500   0.02400   0.03410   0.00840   0.01140  -0.00570
C294      0.09300   0.02660   0.03870   0.00000   0.00300  -0.00480
C295      0.13000   0.02540   0.04900  -0.00200   0.02800   0.00310
C296      0.15200   0.02480   0.05000   0.00000   0.01500   0.00010
N297      0.02330   0.04710   0.03030   0.00200  -0.00030  -0.00130
N298      0.02450   0.05650   0.03410   0.00140   0.00040  -0.00230
C299      0.02400   0.07500   0.03410   0.00840   0.00570  -0.01140
C300      0.02660   0.09300   0.03870   0.00000   0.00480  -0.00300
C301      0.02540   0.13000   0.04900  -0.00200  -0.00310  -0.02800
C302      0.02480   0.15200   0.05000   0.00000  -0.00010  -0.01500
N303      0.02330   0.04710   0.03030   0.00200   0.00030   0.00130
N304      0.02450   0.05650   0.03410   0.00140  -0.00040   0.00230
C305      0.02400   0.07500   0.03410   0.00840  -0.00570   0.01140
C306      0.02660   0.09300   0.03870   0.00000  -0.00480   0.00300
C307      0.02540   0.13000   0.04900  -0.00200   0.00310   0.02800
C308      0.02480   0.15200   0.05000   0.00000   0.00010   0.01500
N309      0.04710   0.02330   0.03030  -0.00200  -0.00130   0.00030
N310      0.05650   0.02450   0.03410  -0.00140  -0.00230  -0.00040
C311      0.07500   0.02400   0.03410  -0.00840  -0.01140  -0.00570
C312      0.09300   0.02660   0.03870   0.00000  -0.00300  -0.00480
C313      0.13000   0.02540   0.04900   0.00200  -0.02800   0.00310
C314      0.15200   0.02480   0.05000   0.00000  -0.01500   0.00010
N315      0.04710   0.02330   0.03030  -0.00200   0.00130  -0.00030
N316      0.05650   0.02450   0.03410  -0.00140   0.00230   0.00040
C317      0.07500   0.02400   0.03410  -0.00840   0.01140   0.00570
C318      0.09300   0.02660   0.03870   0.00000   0.00300   0.00480
C319      0.13000   0.02540   0.04900   0.00200   0.02800  -0.00310
C320      0.15200   0.02480   0.05000   0.00000   0.01500  -0.00010
Co321     0.02490   0.02490   0.02650  -0.00028  -0.00071   0.00071
Co322     0.02490   0.02490   0.02650  -0.00028   0.00071  -0.00071
Co323     0.02490   0.02490   0.02650   0.00028  -0.00071  -0.00071
Co324     0.02490   0.02490   0.02650   0.00028   0.00071   0.00071
C325      0.01940   0.07600   0.04700   0.00000   0.00000   0.01000
C326      0.02310   0.06200   0.03900   0.00000   0.00000   0.00900
C327      0.02250   0.08400   0.04600   0.00000   0.00000   0.03100
C328      0.02300   0.08800   0.05200   0.00000   0.00000  -0.00900
C329      0.01940   0.07600   0.04700   0.00000   0.00000  -0.01000
C330      0.02310   0.06200   0.03900   0.00000   0.00000  -0.00900
C331      0.02250   0.08400   0.04600   0.00000   0.00000  -0.03100
C332      0.02300   0.08800   0.05200   0.00000   0.00000   0.00900
C333      0.07600   0.01940   0.04700   0.00000  -0.01000   0.00000
C334      0.06200   0.02310   0.03900   0.00000  -0.00900   0.00000
C335      0.08400   0.02250   0.04600   0.00000  -0.03100   0.00000
C336      0.08800   0.02300   0.05200   0.00000   0.00900   0.00000
C337      0.07600   0.01940   0.04700   0.00000   0.01000   0.00000
C338      0.06200   0.02310   0.03900   0.00000   0.00900   0.00000
C339      0.08400   0.02250   0.04600   0.00000   0.03100   0.00000
C340      0.08800   0.02300   0.05200   0.00000  -0.00900   0.00000
N341      0.02330   0.04710   0.03030  -0.00200  -0.00030   0.00130
N342      0.02450   0.05650   0.03410  -0.00140   0.00040   0.00230
C343      0.02400   0.07500   0.03410  -0.00840   0.00570   0.01140
C344      0.02660   0.09300   0.03870   0.00000   0.00480   0.00300
C345      0.02540   0.13000   0.04900   0.00200  -0.00310   0.02800
C346      0.02480   0.15200   0.05000   0.00000  -0.00010   0.01500
N347      0.02330   0.04710   0.03030  -0.00200   0.00030  -0.00130
N348      0.02450   0.05650   0.03410  -0.00140  -0.00040  -0.00230
C349      0.02400   0.07500   0.03410  -0.00840  -0.00570  -0.01140
C350      0.02660   0.09300   0.03870   0.00000  -0.00480  -0.00300
C351      0.02540   0.13000   0.04900   0.00200   0.00310  -0.02800
C352      0.02480   0.15200   0.05000   0.00000   0.00010  -0.01500
N353      0.04710   0.02330   0.03030   0.00200  -0.00130  -0.00030
N354      0.05650   0.02450   0.03410   0.00140  -0.00230   0.00040
C355      0.07500   0.02400   0.03410   0.00840  -0.01140   0.00570
C356      0.09300   0.02660   0.03870   0.00000  -0.00300   0.00480
C357      0.13000   0.02540   0.04900  -0.00200  -0.02800  -0.00310
C358      0.15200   0.02480   0.05000   0.00000  -0.01500  -0.00010
N359      0.04710   0.02330   0.03030   0.00200   0.00130   0.00030
N360      0.05650   0.02450   0.03410   0.00140   0.00230  -0.00040
C361      0.07500   0.02400   0.03410   0.00840   0.01140  -0.00570
C362      0.09300   0.02660   0.03870   0.00000   0.00300  -0.00480
C363      0.13000   0.02540   0.04900  -0.00200   0.02800   0.00310
C364      0.15200   0.02480   0.05000   0.00000   0.01500   0.00010
N365      0.02330   0.04710   0.03030   0.00200  -0.00030  -0.00130
N366      0.02450   0.05650   0.03410   0.00140   0.00040  -0.00230
C367      0.02400   0.07500   0.03410   0.00840   0.00570  -0.01140
C368      0.02660   0.09300   0.03870   0.00000   0.00480  -0.00300
C369      0.02540   0.13000   0.04900  -0.00200  -0.00310  -0.02800
C370      0.02480   0.15200   0.05000   0.00000  -0.00010  -0.01500
N371      0.02330   0.04710   0.03030   0.00200   0.00030   0.00130
N372      0.02450   0.05650   0.03410   0.00140  -0.00040   0.00230
C373      0.02400   0.07500   0.03410   0.00840  -0.00570   0.01140
C374      0.02660   0.09300   0.03870   0.00000  -0.00480   0.00300
C375      0.02540   0.13000   0.04900  -0.00200   0.00310   0.02800
C376      0.02480   0.15200   0.05000   0.00000   0.00010   0.01500
N377      0.04710   0.02330   0.03030  -0.00200  -0.00130   0.00030
N378      0.05650   0.02450   0.03410  -0.00140  -0.00230  -0.00040
C379      0.07500   0.02400   0.03410  -0.00840  -0.01140  -0.00570
C380      0.09300   0.02660   0.03870   0.00000  -0.00300  -0.00480
C381      0.13000   0.02540   0.04900   0.00200  -0.02800   0.00310
C382      0.15200   0.02480   0.05000   0.00000  -0.01500   0.00010
N383      0.04710   0.02330   0.03030  -0.00200   0.00130  -0.00030
N384      0.05650   0.02450   0.03410  -0.00140   0.00230   0.00040
C385      0.07500   0.02400   0.03410  -0.00840   0.01140   0.00570
C386      0.09300   0.02660   0.03870   0.00000   0.00300   0.00480
C387      0.13000   0.02540   0.04900   0.00200   0.02800  -0.00310
C388      0.15200   0.02480   0.05000   0.00000   0.01500  -0.00010
Co389     0.02490   0.02490   0.02650  -0.00028  -0.00071   0.00071
Co390     0.02490   0.02490   0.02650  -0.00028   0.00071  -0.00071
Co391     0.02490   0.02490   0.02650   0.00028  -0.00071  -0.00071
Co392     0.02490   0.02490   0.02650   0.00028   0.00071   0.00071
C393      0.01940   0.07600   0.04700   0.00000   0.00000   0.01000
C394      0.02310   0.06200   0.03900   0.00000   0.00000   0.00900
C395      0.02250   0.08400   0.04600   0.00000   0.00000   0.03100
C396      0.02300   0.08800   0.05200   0.00000   0.00000  -0.00900
C397      0.01940   0.07600   0.04700   0.00000   0.00000  -0.01000
C398      0.02310   0.06200   0.03900   0.00000   0.00000  -0.00900
C399      0.02250   0.08400   0.04600   0.00000   0.00000  -0.03100
C400      0.02300   0.08800   0.05200   0.00000   0.00000   0.00900
C401      0.07600   0.01940   0.04700   0.00000  -0.01000   0.00000
C402      0.06200   0.02310   0.03900   0.00000  -0.00900   0.00000
C403      0.08400   0.02250   0.04600   0.00000  -0.03100   0.00000
C404      0.08800   0.02300   0.05200   0.00000   0.00900   0.00000
C405      0.07600   0.01940   0.04700   0.00000   0.01000   0.00000
C406      0.06200   0.02310   0.03900   0.00000   0.00900   0.00000
C407      0.08400   0.02250   0.04600   0.00000   0.03100   0.00000
C408      0.08800   0.02300   0.05200   0.00000  -0.00900   0.00000
N409      0.02330   0.04710   0.03030  -0.00200  -0.00030   0.00130
N410      0.02450   0.05650   0.03410  -0.00140   0.00040   0.00230
C411      0.02400   0.07500   0.03410  -0.00840   0.00570   0.01140
C412      0.02660   0.09300   0.03870   0.00000   0.00480   0.00300
C413      0.02540   0.13000   0.04900   0.00200  -0.00310   0.02800
C414      0.02480   0.15200   0.05000   0.00000  -0.00010   0.01500
N415      0.02330   0.04710   0.03030  -0.00200   0.00030  -0.00130
N416      0.02450   0.05650   0.03410  -0.00140  -0.00040  -0.00230
C417      0.02400   0.07500   0.03410  -0.00840  -0.00570  -0.01140
C418      0.02660   0.09300   0.03870   0.00000  -0.00480  -0.00300
C419      0.02540   0.13000   0.04900   0.00200   0.00310  -0.02800
C420      0.02480   0.15200   0.05000   0.00000   0.00010  -0.01500
N421      0.04710   0.02330   0.03030   0.00200  -0.00130  -0.00030
N422      0.05650   0.02450   0.03410   0.00140  -0.00230   0.00040
C423      0.07500   0.02400   0.03410   0.00840  -0.01140   0.00570
C424      0.09300   0.02660   0.03870   0.00000  -0.00300   0.00480
C425      0.13000   0.02540   0.04900  -0.00200  -0.02800  -0.00310
C426      0.15200   0.02480   0.05000   0.00000  -0.01500  -0.00010
N427      0.04710   0.02330   0.03030   0.00200   0.00130   0.00030
N428      0.05650   0.02450   0.03410   0.00140   0.00230  -0.00040
C429      0.07500   0.02400   0.03410   0.00840   0.01140  -0.00570
C430      0.09300   0.02660   0.03870   0.00000   0.00300  -0.00480
C431      0.13000   0.02540   0.04900  -0.00200   0.02800   0.00310
C432      0.15200   0.02480   0.05000   0.00000   0.01500   0.00010
N433      0.02330   0.04710   0.03030   0.00200  -0.00030  -0.00130
N434      0.02450   0.05650   0.03410   0.00140   0.00040  -0.00230
C435      0.02400   0.07500   0.03410   0.00840   0.00570  -0.01140
C436      0.02660   0.09300   0.03870   0.00000   0.00480  -0.00300
C437      0.02540   0.13000   0.04900  -0.00200  -0.00310  -0.02800
C438      0.02480   0.15200   0.05000   0.00000  -0.00010  -0.01500
N439      0.02330   0.04710   0.03030   0.00200   0.00030   0.00130
N440      0.02450   0.05650   0.03410   0.00140  -0.00040   0.00230
C441      0.02400   0.07500   0.03410   0.00840  -0.00570   0.01140
C442      0.02660   0.09300   0.03870   0.00000  -0.00480   0.00300
C443      0.02540   0.13000   0.04900  -0.00200   0.00310   0.02800
C444      0.02480   0.15200   0.05000   0.00000   0.00010   0.01500
N445      0.04710   0.02330   0.03030  -0.00200  -0.00130   0.00030
N446      0.05650   0.02450   0.03410  -0.00140  -0.00230  -0.00040
C447      0.07500   0.02400   0.03410  -0.00840  -0.01140  -0.00570
C448      0.09300   0.02660   0.03870   0.00000  -0.00300  -0.00480
C449      0.13000   0.02540   0.04900   0.00200  -0.02800   0.00310
C450      0.15200   0.02480   0.05000   0.00000  -0.01500   0.00010
N451      0.04710   0.02330   0.03030  -0.00200   0.00130  -0.00030
N452      0.05650   0.02450   0.03410  -0.00140   0.00230   0.00040
C453      0.07500   0.02400   0.03410  -0.00840   0.01140   0.00570
C454      0.09300   0.02660   0.03870   0.00000   0.00300   0.00480
C455      0.13000   0.02540   0.04900   0.00200   0.02800  -0.00310
C456      0.15200   0.02480   0.05000   0.00000   0.01500  -0.00010
Co457     0.02490   0.02490   0.02650  -0.00028  -0.00071   0.00071
Co458     0.02490   0.02490   0.02650  -0.00028   0.00071  -0.00071
Co459     0.02490   0.02490   0.02650   0.00028  -0.00071  -0.00071
Co460     0.02490   0.02490   0.02650   0.00028   0.00071   0.00071
C461      0.01940   0.07600   0.04700   0.00000   0.00000   0.01000
C462      0.02310   0.06200   0.03900   0.00000   0.00000   0.00900
C463      0.02250   0.08400   0.04600   0.00000   0.00000   0.03100
C464      0.02300   0.08800   0.05200   0.00000   0.00000  -0.00900
C465      0.01940   0.07600   0.04700   0.00000   0.00000  -0.01000
C466      0.02310   0.06200   0.03900   0.00000   0.00000  -0.00900
C467      0.02250   0.08400   0.04600   0.00000   0.00000  -0.03100
C468      0.02300   0.08800   0.05200   0.00000   0.00000   0.00900
C469      0.07600   0.01940   0.04700   0.00000  -0.01000   0.00000
C470      0.06200   0.02310   0.03900   0.00000  -0.00900   0.00000
C471      0.08400   0.02250   0.04600   0.00000  -0.03100   0.00000
C472      0.08800   0.02300   0.05200   0.00000   0.00900   0.00000
C473      0.07600   0.01940   0.04700   0.00000   0.01000   0.00000
C474      0.06200   0.02310   0.03900   0.00000   0.00900   0.00000
C475      0.08400   0.02250   0.04600   0.00000   0.03100   0.00000
C476      0.08800   0.02300   0.05200   0.00000  -0.00900   0.00000
N477      0.02330   0.04710   0.03030  -0.00200  -0.00030   0.00130
N478      0.02450   0.05650   0.03410  -0.00140   0.00040   0.00230
C479      0.02400   0.07500   0.03410  -0.00840   0.00570   0.01140
C480      0.02660   0.09300   0.03870   0.00000   0.00480   0.00300
C481      0.02540   0.13000   0.04900   0.00200  -0.00310   0.02800
C482      0.02480   0.15200   0.05000   0.00000  -0.00010   0.01500
N483      0.02330   0.04710   0.03030  -0.00200   0.00030  -0.00130
N484      0.02450   0.05650   0.03410  -0.00140  -0.00040  -0.00230
C485      0.02400   0.07500   0.03410  -0.00840  -0.00570  -0.01140
C486      0.02660   0.09300   0.03870   0.00000  -0.00480  -0.00300
C487      0.02540   0.13000   0.04900   0.00200   0.00310  -0.02800
C488      0.02480   0.15200   0.05000   0.00000   0.00010  -0.01500
N489      0.04710   0.02330   0.03030   0.00200  -0.00130  -0.00030
N490      0.05650   0.02450   0.03410   0.00140  -0.00230   0.00040
C491      0.07500   0.02400   0.03410   0.00840  -0.01140   0.00570
C492      0.09300   0.02660   0.03870   0.00000  -0.00300   0.00480
C493      0.13000   0.02540   0.04900  -0.00200  -0.02800  -0.00310
C494      0.15200   0.02480   0.05000   0.00000  -0.01500  -0.00010
N495      0.04710   0.02330   0.03030   0.00200   0.00130   0.00030
N496      0.05650   0.02450   0.03410   0.00140   0.00230  -0.00040
C497      0.07500   0.02400   0.03410   0.00840   0.01140  -0.00570
C498      0.09300   0.02660   0.03870   0.00000   0.00300  -0.00480
C499      0.13000   0.02540   0.04900  -0.00200   0.02800   0.00310
C500      0.15200   0.02480   0.05000   0.00000   0.01500   0.00010
N501      0.02330   0.04710   0.03030   0.00200  -0.00030  -0.00130
N502      0.02450   0.05650   0.03410   0.00140   0.00040  -0.00230
C503      0.02400   0.07500   0.03410   0.00840   0.00570  -0.01140
C504      0.02660   0.09300   0.03870   0.00000   0.00480  -0.00300
C505      0.02540   0.13000   0.04900  -0.00200  -0.00310  -0.02800
C506      0.02480   0.15200   0.05000   0.00000  -0.00010  -0.01500
N507      0.02330   0.04710   0.03030   0.00200   0.00030   0.00130
N508      0.02450   0.05650   0.03410   0.00140  -0.00040   0.00230
C509      0.02400   0.07500   0.03410   0.00840  -0.00570   0.01140
C510      0.02660   0.09300   0.03870   0.00000  -0.00480   0.00300
C511      0.02540   0.13000   0.04900  -0.00200   0.00310   0.02800
C512      0.02480   0.15200   0.05000   0.00000   0.00010   0.01500
N513      0.04710   0.02330   0.03030  -0.00200  -0.00130   0.00030
N514      0.05650   0.02450   0.03410  -0.00140  -0.00230  -0.00040
C515      0.07500   0.02400   0.03410  -0.00840  -0.01140  -0.00570
C516      0.09300   0.02660   0.03870   0.00000  -0.00300  -0.00480
C517      0.13000   0.02540   0.04900   0.00200  -0.02800   0.00310
C518      0.15200   0.02480   0.05000   0.00000  -0.01500   0.00010
N519      0.04710   0.02330   0.03030  -0.00200   0.00130  -0.00030
N520      0.05650   0.02450   0.03410  -0.00140   0.00230   0.00040
C521      0.07500   0.02400   0.03410  -0.00840   0.01140   0.00570
C522      0.09300   0.02660   0.03870   0.00000   0.00300   0.00480
C523      0.13000   0.02540   0.04900   0.00200   0.02800  -0.00310
C524      0.15200   0.02480   0.05000   0.00000   0.01500  -0.00010
Co525     0.02490   0.02490   0.02650  -0.00028  -0.00071   0.00071
Co526     0.02490   0.02490   0.02650  -0.00028   0.00071  -0.00071
Co527     0.02490   0.02490   0.02650   0.00028  -0.00071  -0.00071
Co528     0.02490   0.02490   0.02650   0.00028   0.00071   0.00071
C529      0.01940   0.07600   0.04700   0.00000   0.00000   0.01000
C530      0.02310   0.06200   0.03900   0.00000   0.00000   0.00900
C531      0.02250   0.08400   0.04600   0.00000   0.00000   0.03100
C532      0.02300   0.08800   0.05200   0.00000   0.00000  -0.00900
C533      0.01940   0.07600   0.04700   0.00000   0.00000  -0.01000
C534      0.02310   0.06200   0.03900   0.00000   0.00000  -0.00900
C535      0.02250   0.08400   0.04600   0.00000   0.00000  -0.03100
C536      0.02300   0.08800   0.05200   0.00000   0.00000   0.00900
C537      0.07600   0.01940   0.04700   0.00000  -0.01000   0.00000
C538      0.06200   0.02310   0.03900   0.00000  -0.00900   0.00000
C539      0.08400   0.02250   0.04600   0.00000  -0.03100   0.00000
C540      0.08800   0.02300   0.05200   0.00000   0.00900   0.00000
C541      0.07600   0.01940   0.04700   0.00000   0.01000   0.00000
C542      0.06200   0.02310   0.03900   0.00000   0.00900   0.00000
C543      0.08400   0.02250   0.04600   0.00000   0.03100   0.00000
C544      0.08800   0.02300   0.05200   0.00000  -0.00900   0.00000
N545      0.02330   0.04710   0.03030  -0.00200  -0.00030   0.00130
N546      0.02450   0.05650   0.03410  -0.00140   0.00040   0.00230
C547      0.02400   0.07500   0.03410  -0.00840   0.00570   0.01140
C548      0.02660   0.09300   0.03870   0.00000   0.00480   0.00300
C549      0.02540   0.13000   0.04900   0.00200  -0.00310   0.02800
C550      0.02480   0.15200   0.05000   0.00000  -0.00010   0.01500
N551      0.02330   0.04710   0.03030  -0.00200   0.00030  -0.00130
N552      0.02450   0.05650   0.03410  -0.00140  -0.00040  -0.00230
C553      0.02400   0.07500   0.03410  -0.00840  -0.00570  -0.01140
C554      0.02660   0.09300   0.03870   0.00000  -0.00480  -0.00300
C555      0.02540   0.13000   0.04900   0.00200   0.00310  -0.02800
C556      0.02480   0.15200   0.05000   0.00000   0.00010  -0.01500
N557      0.04710   0.02330   0.03030   0.00200  -0.00130  -0.00030
N558      0.05650   0.02450   0.03410   0.00140  -0.00230   0.00040
C559      0.07500   0.02400   0.03410   0.00840  -0.01140   0.00570
C560      0.09300   0.02660   0.03870   0.00000  -0.00300   0.00480
C561      0.13000   0.02540   0.04900  -0.00200  -0.02800  -0.00310
C562      0.15200   0.02480   0.05000   0.00000  -0.01500  -0.00010
N563      0.04710   0.02330   0.03030   0.00200   0.00130   0.00030
N564      0.05650   0.02450   0.03410   0.00140   0.00230  -0.00040
C565      0.07500   0.02400   0.03410   0.00840   0.01140  -0.00570
C566      0.09300   0.02660   0.03870   0.00000   0.00300  -0.00480
C567      0.13000   0.02540   0.04900  -0.00200   0.02800   0.00310
C568      0.15200   0.02480   0.05000   0.00000   0.01500   0.00010
N569      0.02330   0.04710   0.03030   0.00200  -0.00030  -0.00130
N570      0.02450   0.05650   0.03410   0.00140   0.00040  -0.00230
C571      0.02400   0.07500   0.03410   0.00840   0.00570  -0.01140
C572      0.02660   0.09300   0.03870   0.00000   0.00480  -0.00300
C573      0.02540   0.13000   0.04900  -0.00200  -0.00310  -0.02800
C574      0.02480   0.15200   0.05000   0.00000  -0.00010  -0.01500
N575      0.02330   0.04710   0.03030   0.00200   0.00030   0.00130
N576      0.02450   0.05650   0.03410   0.00140  -0.00040   0.00230
C577      0.02400   0.07500   0.03410   0.00840  -0.00570   0.01140
C578      0.02660   0.09300   0.03870   0.00000  -0.00480   0.00300
C579      0.02540   0.13000   0.04900  -0.00200   0.00310   0.02800
C580      0.02480   0.15200   0.05000   0.00000   0.00010   0.01500
N581      0.04710   0.02330   0.03030  -0.00200  -0.00130   0.00030
N582      0.05650   0.02450   0.03410  -0.00140  -0.00230  -0.00040
C583      0.07500   0.02400   0.03410  -0.00840  -0.01140  -0.00570
C584      0.09300   0.02660   0.03870   0.00000  -0.00300  -0.00480
C585      0.13000   0.02540   0.04900   0.00200  -0.02800   0.00310
C586      0.15200   0.02480   0.05000   0.00000  -0.01500   0.00010
N587      0.04710   0.02330   0.03030  -0.00200   0.00130  -0.00030
N588      0.05650   0.02450   0.03410  -0.00140   0.00230   0.00040
C589      0.07500   0.02400   0.03410  -0.00840   0.01140   0.00570
C590      0.09300   0.02660   0.03870   0.00000   0.00300   0.00480
C591      0.13000   0.02540   0.04900   0.00200   0.02800  -0.00310
C592      0.15200   0.02480   0.05000   0.00000   0.01500  -0.00010
Co593     0.02490   0.02490   0.02650  -0.00028  -0.00071   0.00071
Co594     0.02490   0.02490   0.02650  -0.00028   0.00071  -0.00071
Co595     0.02490   0.02490   0.02650   0.00028  -0.00071  -0.00071
Co596     0.02490   0.02490   0.02650   0.00028   0.00071   0.00071
C597      0.01940   0.07600   0.04700   0.00000   0.00000   0.01000
C598      0.02310   0.06200   0.03900   0.00000   0.00000   0.00900
C599      0.02250   0.08400   0.04600   0.00000   0.00000   0.03100
C600      0.02300   0.08800   0.05200   0.00000   0.00000  -0.00900
C601      0.01940   0.07600   0.04700   0.00000   0.00000  -0.01000
C602      0.02310   0.06200   0.03900   0.00000   0.00000  -0.00900
C603      0.02250   0.08400   0.04600   0.00000   0.00000  -0.03100
C604      0.02300   0.08800   0.05200   0.00000   0.00000   0.00900
C605      0.07600   0.01940   0.04700   0.00000  -0.01000   0.00000
C606      0.06200   0.02310   0.03900   0.00000  -0.00900   0.00000
C607      0.08400   0.02250   0.04600   0.00000  -0.03100   0.00000
C608      0.08800   0.02300   0.05200   0.00000   0.00900   0.00000
C609      0.07600   0.01940   0.04700   0.00000   0.01000   0.00000
C610      0.06200   0.02310   0.03900   0.00000   0.00900   0.00000
C611      0.08400   0.02250   0.04600   0.00000   0.03100   0.00000
C612      0.08800   0.02300   0.05200   0.00000  -0.00900   0.00000
N613      0.02330   0.04710   0.03030  -0.00200  -0.00030   0.00130
N614      0.02450   0.05650   0.03410  -0.00140   0.00040   0.00230
C615      0.02400   0.07500   0.03410  -0.00840   0.00570   0.01140
C616      0.02660   0.09300   0.03870   0.00000   0.00480   0.00300
C617      0.02540   0.13000   0.04900   0.00200  -0.00310   0.02800
C618      0.02480   0.15200   0.05000   0.00000  -0.00010   0.01500
N619      0.02330   0.04710   0.03030  -0.00200   0.00030  -0.00130
N620      0.02450   0.05650   0.03410  -0.00140  -0.00040  -0.00230
C621      0.02400   0.07500   0.03410  -0.00840  -0.00570  -0.01140
C622      0.02660   0.09300   0.03870   0.00000  -0.00480  -0.00300
C623      0.02540   0.13000   0.04900   0.00200   0.00310  -0.02800
C624      0.02480   0.15200   0.05000   0.00000   0.00010  -0.01500
N625      0.04710   0.02330   0.03030   0.00200  -0.00130  -0.00030
N626      0.05650   0.02450   0.03410   0.00140  -0.00230   0.00040
C627      0.07500   0.02400   0.03410   0.00840  -0.01140   0.00570
C628      0.09300   0.02660   0.03870   0.00000  -0.00300   0.00480
C629      0.13000   0.02540   0.04900  -0.00200  -0.02800  -0.00310
C630      0.15200   0.02480   0.05000   0.00000  -0.01500  -0.00010
N631      0.04710   0.02330   0.03030   0.00200   0.00130   0.00030
N632      0.05650   0.02450   0.03410   0.00140   0.00230  -0.00040
C633      0.07500   0.02400   0.03410   0.00840   0.01140  -0.00570
C634      0.09300   0.02660   0.03870   0.00000   0.00300  -0.00480
C635      0.13000   0.02540   0.04900  -0.00200   0.02800   0.00310
C636      0.15200   0.02480   0.05000   0.00000   0.01500   0.00010
N637      0.02330   0.04710   0.03030   0.00200  -0.00030  -0.00130
N638      0.02450   0.05650   0.03410   0.00140   0.00040  -0.00230
C639      0.02400   0.07500   0.03410   0.00840   0.00570  -0.01140
C640      0.02660   0.09300   0.03870   0.00000   0.00480  -0.00300
C641      0.02540   0.13000   0.04900  -0.00200  -0.00310  -0.02800
C642      0.02480   0.15200   0.05000   0.00000  -0.00010  -0.01500
N643      0.02330   0.04710   0.03030   0.00200   0.00030   0.00130
N644      0.02450   0.05650   0.03410   0.00140  -0.00040   0.00230
C645      0.02400   0.07500   0.03410   0.00840  -0.00570   0.01140
C646      0.02660   0.09300   0.03870   0.00000  -0.00480   0.00300
C647      0.02540   0.13000   0.04900  -0.00200   0.00310   0.02800
C648      0.02480   0.15200   0.05000   0.00000   0.00010   0.01500
N649      0.04710   0.02330   0.03030  -0.00200  -0.00130   0.00030
N650      0.05650   0.02450   0.03410  -0.00140  -0.00230  -0.00040
C651      0.07500   0.02400   0.03410  -0.00840  -0.01140  -0.00570
C652      0.09300   0.02660   0.03870   0.00000  -0.00300  -0.00480
C653      0.13000   0.02540   0.04900   0.00200  -0.02800   0.00310
C654      0.15200   0.02480   0.05000   0.00000  -0.01500   0.00010
N655      0.04710   0.02330   0.03030  -0.00200   0.00130  -0.00030
N656      0.05650   0.02450   0.03410  -0.00140   0.00230   0.00040
C657      0.07500   0.02400   0.03410  -0.00840   0.01140   0.00570
C658      0.09300   0.02660   0.03870   0.00000   0.00300   0.00480
C659      0.13000   0.02540   0.04900   0.00200   0.02800  -0.00310
C660      0.15200   0.02480   0.05000   0.00000   0.01500  -0.00010
Co661     0.02490   0.02490   0.02650  -0.00028  -0.00071   0.00071
Co662     0.02490   0.02490   0.02650  -0.00028   0.00071  -0.00071
Co663     0.02490   0.02490   0.02650   0.00028  -0.00071  -0.00071
Co664     0.02490   0.02490   0.02650   0.00028   0.00071   0.00071
C665      0.01940   0.07600   0.04700   0.00000   0.00000   0.01000
C666      0.02310   0.06200   0.03900   0.00000   0.00000   0.00900
C667      0.02250   0.08400   0.04600   0.00000   0.00000   0.03100
C668      0.02300   0.08800   0.05200   0.00000   0.00000  -0.00900
C669      0.01940   0.07600   0.04700   0.00000   0.00000  -0.01000
C670      0.02310   0.06200   0.03900   0.00000   0.00000  -0.00900
C671      0.02250   0.08400   0.04600   0.00000   0.00000  -0.03100
C672      0.02300   0.08800   0.05200   0.00000   0.00000   0.00900
C673      0.07600   0.01940   0.04700   0.00000  -0.01000   0.00000
C674      0.06200   0.02310   0.03900   0.00000  -0.00900   0.00000
C675      0.08400   0.02250   0.04600   0.00000  -0.03100   0.00000
C676      0.08800   0.02300   0.05200   0.00000   0.00900   0.00000
C677      0.07600   0.01940   0.04700   0.00000   0.01000   0.00000
C678      0.06200   0.02310   0.03900   0.00000   0.00900   0.00000
C679      0.08400   0.02250   0.04600   0.00000   0.03100   0.00000
C680      0.08800   0.02300   0.05200   0.00000  -0.00900   0.00000
N681      0.02330   0.04710   0.03030  -0.00200  -0.00030   0.00130
N682      0.02450   0.05650   0.03410  -0.00140   0.00040   0.00230
C683      0.02400   0.07500   0.03410  -0.00840   0.00570   0.01140
C684      0.02660   0.09300   0.03870   0.00000   0.00480   0.00300
C685      0.02540   0.13000   0.04900   0.00200  -0.00310   0.02800
C686      0.02480   0.15200   0.05000   0.00000  -0.00010   0.01500
N687      0.02330   0.04710   0.03030  -0.00200   0.00030  -0.00130
N688      0.02450   0.05650   0.03410  -0.00140  -0.00040  -0.00230
C689      0.02400   0.07500   0.03410  -0.00840  -0.00570  -0.01140
C690      0.02660   0.09300   0.03870   0.00000  -0.00480  -0.00300
C691      0.02540   0.13000   0.04900   0.00200   0.00310  -0.02800
C692      0.02480   0.15200   0.05000   0.00000   0.00010  -0.01500
N693      0.04710   0.02330   0.03030   0.00200  -0.00130  -0.00030
N694      0.05650   0.02450   0.03410   0.00140  -0.00230   0.00040
C695      0.07500   0.02400   0.03410   0.00840  -0.01140   0.00570
C696      0.09300   0.02660   0.03870   0.00000  -0.00300   0.00480
C697      0.13000   0.02540   0.04900  -0.00200  -0.02800  -0.00310
C698      0.15200   0.02480   0.05000   0.00000  -0.01500  -0.00010
N699      0.04710   0.02330   0.03030   0.00200   0.00130   0.00030
N700      0.05650   0.02450   0.03410   0.00140   0.00230  -0.00040
C701      0.07500   0.02400   0.03410   0.00840   0.01140  -0.00570
C702      0.09300   0.02660   0.03870   0.00000   0.00300  -0.00480
C703      0.13000   0.02540   0.04900  -0.00200   0.02800   0.00310
C704      0.15200   0.02480   0.05000   0.00000   0.01500   0.00010
N705      0.02330   0.04710   0.03030   0.00200  -0.00030  -0.00130
N706      0.02450   0.05650   0.03410   0.00140   0.00040  -0.00230
C707      0.02400   0.07500   0.03410   0.00840   0.00570  -0.01140
C708      0.02660   0.09300   0.03870   0.00000   0.00480  -0.00300
C709      0.02540   0.13000   0.04900  -0.00200  -0.00310  -0.02800
C710      0.02480   0.15200   0.05000   0.00000  -0.00010  -0.01500
N711      0.02330   0.04710   0.03030   0.00200   0.00030   0.00130
N712      0.02450   0.05650   0.03410   0.00140  -0.00040   0.00230
C713      0.02400   0.07500   0.03410   0.00840  -0.00570   0.01140
C714      0.02660   0.09300   0.03870   0.00000  -0.00480   0.00300
C715      0.02540   0.13000   0.04900  -0.00200   0.00310   0.02800
C716      0.02480   0.15200   0.05000   0.00000   0.00010   0.01500
N717      0.04710   0.02330   0.03030  -0.00200  -0.00130   0.00030
N718      0.05650   0.02450   0.03410  -0.00140  -0.00230  -0.00040
C719      0.07500   0.02400   0.03410  -0.00840  -0.01140  -0.00570
C720      0.09300   0.02660   0.03870   0.00000  -0.00300  -0.00480
C721      0.13000   0.02540   0.04900   0.00200  -0.02800   0.00310
C722      0.15200   0.02480   0.05000   0.00000  -0.01500   0.00010
N723      0.04710   0.02330   0.03030  -0.00200   0.00130  -0.00030
N724      0.05650   0.02450   0.03410  -0.00140   0.00230   0.00040
C725      0.07500   0.02400   0.03410  -0.00840   0.01140   0.00570
C726      0.09300   0.02660   0.03870   0.00000   0.00300   0.00480
C727      0.13000   0.02540   0.04900   0.00200   0.02800  -0.00310
C728      0.15200   0.02480   0.05000   0.00000   0.01500  -0.00010
Co729     0.02490   0.02490   0.02650  -0.00028  -0.00071   0.00071
Co730     0.02490   0.02490   0.02650  -0.00028   0.00071  -0.00071
Co731     0.02490   0.02490   0.02650   0.00028  -0.00071  -0.00071
Co732     0.02490   0.02490   0.02650   0.00028   0.00071   0.00071
C733      0.01940   0.07600   0.04700   0.00000   0.00000   0.01000
C734      0.02310   0.06200   0.03900   0.00000   0.00000   0.00900
C735      0.02250   0.08400   0.04600   0.00000   0.00000   0.03100
C736      0.02300   0.08800   0.05200   0.00000   0.00000  -0.00900
C737      0.01940   0.07600   0.04700   0.00000   0.00000  -0.01000
C738      0.02310   0.06200   0.03900   0.00000   0.00000  -0.00900
C739      0.02250   0.08400   0.04600   0.00000   0.00000  -0.03100
C740      0.02300   0.08800   0.05200   0.00000   0.00000   0.00900
C741      0.07600   0.01940   0.04700   0.00000  -0.01000   0.00000
C742      0.06200   0.02310   0.03900   0.00000  -0.00900   0.00000
C743      0.08400   0.02250   0.04600   0.00000  -0.03100   0.00000
C744      0.08800   0.02300   0.05200   0.00000   0.00900   0.00000
C745      0.07600   0.01940   0.04700   0.00000   0.01000   0.00000
C746      0.06200   0.02310   0.03900   0.00000   0.00900   0.00000
C747      0.08400   0.02250   0.04600   0.00000   0.03100   0.00000
C748      0.08800   0.02300   0.05200   0.00000  -0.00900   0.00000
N749      0.02330   0.04710   0.03030  -0.00200  -0.00030   0.00130
N750      0.02450   0.05650   0.03410  -0.00140   0.00040   0.00230
C751      0.02400   0.07500   0.03410  -0.00840   0.00570   0.01140
C752      0.02660   0.09300   0.03870   0.00000   0.00480   0.00300
C753      0.02540   0.13000   0.04900   0.00200  -0.00310   0.02800
C754      0.02480   0.15200   0.05000   0.00000  -0.00010   0.01500
N755      0.02330   0.04710   0.03030  -0.00200   0.00030  -0.00130
N756      0.02450   0.05650   0.03410  -0.00140  -0.00040  -0.00230
C757      0.02400   0.07500   0.03410  -0.00840  -0.00570  -0.01140
C758      0.02660   0.09300   0.03870   0.00000  -0.00480  -0.00300
C759      0.02540   0.13000   0.04900   0.00200   0.00310  -0.02800
C760      0.02480   0.15200   0.05000   0.00000   0.00010  -0.01500
N761      0.04710   0.02330   0.03030   0.00200  -0.00130  -0.00030
N762      0.05650   0.02450   0.03410   0.00140  -0.00230   0.00040
C763      0.07500   0.02400   0.03410   0.00840  -0.01140   0.00570
C764      0.09300   0.02660   0.03870   0.00000  -0.00300   0.00480
C765      0.13000   0.02540   0.04900  -0.00200  -0.02800  -0.00310
C766      0.15200   0.02480   0.05000   0.00000  -0.01500  -0.00010
N767      0.04710   0.02330   0.03030   0.00200   0.00130   0.00030
N768      0.05650   0.02450   0.03410   0.00140   0.00230  -0.00040
C769      0.07500   0.02400   0.03410   0.00840   0.01140  -0.00570
C770      0.09300   0.02660   0.03870   0.00000   0.00300  -0.00480
C771      0.13000   0.02540   0.04900  -0.00200   0.02800   0.00310
C772      0.15200   0.02480   0.05000   0.00000   0.01500   0.00010
N773      0.02330   0.04710   0.03030   0.00200  -0.00030  -0.00130
N774      0.02450   0.05650   0.03410   0.00140   0.00040  -0.00230
C775      0.02400   0.07500   0.03410   0.00840   0.00570  -0.01140
C776      0.02660   0.09300   0.03870   0.00000   0.00480  -0.00300
C777      0.02540   0.13000   0.04900  -0.00200  -0.00310  -0.02800
C778      0.02480   0.15200   0.05000   0.00000  -0.00010  -0.01500
N779      0.02330   0.04710   0.03030   0.00200   0.00030   0.00130
N780      0.02450   0.05650   0.03410   0.00140  -0.00040   0.00230
C781      0.02400   0.07500   0.03410   0.00840  -0.00570   0.01140
C782      0.02660   0.09300   0.03870   0.00000  -0.00480   0.00300
C783      0.02540   0.13000   0.04900  -0.00200   0.00310   0.02800
C784      0.02480   0.15200   0.05000   0.00000   0.00010   0.01500
N785      0.04710   0.02330   0.03030  -0.00200  -0.00130   0.00030
N786      0.05650   0.02450   0.03410  -0.00140  -0.00230  -0.00040
C787      0.07500   0.02400   0.03410  -0.00840  -0.01140  -0.00570
C788      0.09300   0.02660   0.03870   0.00000  -0.00300  -0.00480
C789      0.13000   0.02540   0.04900   0.00200  -0.02800   0.00310
C790      0.15200   0.02480   0.05000   0.00000  -0.01500   0.00010
N791      0.04710   0.02330   0.03030  -0.00200   0.00130  -0.00030
N792      0.05650   0.02450   0.03410  -0.00140   0.00230   0.00040
C793      0.07500   0.02400   0.03410  -0.00840   0.01140   0.00570
C794      0.09300   0.02660   0.03870   0.00000   0.00300   0.00480
C795      0.13000   0.02540   0.04900   0.00200   0.02800  -0.00310
C796      0.15200   0.02480   0.05000   0.00000   0.01500  -0.00010
Co797     0.02490   0.02490   0.02650  -0.00028  -0.00071   0.00071
Co798     0.02490   0.02490   0.02650  -0.00028   0.00071  -0.00071
Co799     0.02490   0.02490   0.02650   0.00028  -0.00071  -0.00071
Co800     0.02490   0.02490   0.02650   0.00028   0.00071   0.00071
C801      0.01940   0.07600   0.04700   0.00000   0.00000   0.01000
C802      0.02310   0.06200   0.03900   0.00000   0.00000   0.00900
C803      0.02250   0.08400   0.04600   0.00000   0.00000   0.03100
C804      0.02300   0.08800   0.05200   0.00000   0.00000  -0.00900
C805      0.01940   0.07600   0.04700   0.00000   0.00000  -0.01000
C806      0.02310   0.06200   0.03900   0.00000   0.00000  -0.00900
C807      0.02250   0.08400   0.04600   0.00000   0.00000  -0.03100
C808      0.02300   0.08800   0.05200   0.00000   0.00000   0.00900
C809      0.07600   0.01940   0.04700   0.00000  -0.01000   0.00000
C810      0.06200   0.02310   0.03900   0.00000  -0.00900   0.00000
C811      0.08400   0.02250   0.04600   0.00000  -0.03100   0.00000
C812      0.08800   0.02300   0.05200   0.00000   0.00900   0.00000
C813      0.07600   0.01940   0.04700   0.00000   0.01000   0.00000
C814      0.06200   0.02310   0.03900   0.00000   0.00900   0.00000
C815      0.08400   0.02250   0.04600   0.00000   0.03100   0.00000
C816      0.08800   0.02300   0.05200   0.00000  -0.00900   0.00000
N817      0.02330   0.04710   0.03030  -0.00200  -0.00030   0.00130
N818      0.02450   0.05650   0.03410  -0.00140   0.00040   0.00230
C819      0.02400   0.07500   0.03410  -0.00840   0.00570   0.01140
C820      0.02660   0.09300   0.03870   0.00000   0.00480   0.00300
C821      0.02540   0.13000   0.04900   0.00200  -0.00310   0.02800
C822      0.02480   0.15200   0.05000   0.00000  -0.00010   0.01500
N823      0.02330   0.04710   0.03030  -0.00200   0.00030  -0.00130
N824      0.02450   0.05650   0.03410  -0.00140  -0.00040  -0.00230
C825      0.02400   0.07500   0.03410  -0.00840  -0.00570  -0.01140
C826      0.02660   0.09300   0.03870   0.00000  -0.00480  -0.00300
C827      0.02540   0.13000   0.04900   0.00200   0.00310  -0.02800
C828      0.02480   0.15200   0.05000   0.00000   0.00010  -0.01500
N829      0.04710   0.02330   0.03030   0.00200  -0.00130  -0.00030
N830      0.05650   0.02450   0.03410   0.00140  -0.00230   0.00040
C831      0.07500   0.02400   0.03410   0.00840  -0.01140   0.00570
C832      0.09300   0.02660   0.03870   0.00000  -0.00300   0.00480
C833      0.13000   0.02540   0.04900  -0.00200  -0.02800  -0.00310
C834      0.15200   0.02480   0.05000   0.00000  -0.01500  -0.00010
N835      0.04710   0.02330   0.03030   0.00200   0.00130   0.00030
N836      0.05650   0.02450   0.03410   0.00140   0.00230  -0.00040
C837      0.07500   0.02400   0.03410   0.00840   0.01140  -0.00570
C838      0.09300   0.02660   0.03870   0.00000   0.00300  -0.00480
C839      0.13000   0.02540   0.04900  -0.00200   0.02800   0.00310
C840      0.15200   0.02480   0.05000   0.00000   0.01500   0.00010
N841      0.02330   0.04710   0.03030   0.00200  -0.00030  -0.00130
N842      0.02450   0.05650   0.03410   0.00140   0.00040  -0.00230
C843      0.02400   0.07500   0.03410   0.00840   0.00570  -0.01140
C844      0.02660   0.09300   0.03870   0.00000   0.00480  -0.00300
C845      0.02540   0.13000   0.04900  -0.00200  -0.00310  -0.02800
C846      0.02480   0.15200   0.05000   0.00000  -0.00010  -0.01500
N847      0.02330   0.04710   0.03030   0.00200   0.00030   0.00130
N848      0.02450   0.05650   0.03410   0.00140  -0.00040   0.00230
C849      0.02400   0.07500   0.03410   0.00840  -0.00570   0.01140
C850      0.02660   0.09300   0.03870   0.00000  -0.00480   0.00300
C851      0.02540   0.13000   0.04900  -0.00200   0.00310   0.02800
C852      0.02480   0.15200   0.05000   0.00000   0.00010   0.01500
N853      0.04710   0.02330   0.03030  -0.00200  -0.00130   0.00030
N854      0.05650   0.02450   0.03410  -0.00140  -0.00230  -0.00040
C855      0.07500   0.02400   0.03410  -0.00840  -0.01140  -0.00570
C856      0.09300   0.02660   0.03870   0.00000  -0.00300  -0.00480
C857      0.13000   0.02540   0.04900   0.00200  -0.02800   0.00310
C858      0.15200   0.02480   0.05000   0.00000  -0.01500   0.00010
N859      0.04710   0.02330   0.03030  -0.00200   0.00130  -0.00030
N860      0.05650   0.02450   0.03410  -0.00140   0.00230   0.00040
C861      0.07500   0.02400   0.03410  -0.00840   0.01140   0.00570
C862      0.09300   0.02660   0.03870   0.00000   0.00300   0.00480
C863      0.13000   0.02540   0.04900   0.00200   0.02800  -0.00310
C864      0.15200   0.02480   0.05000   0.00000   0.01500  -0.00010
Co865     0.02490   0.02490   0.02650  -0.00028  -0.00071   0.00071
Co866     0.02490   0.02490   0.02650  -0.00028   0.00071  -0.00071
Co867     0.02490   0.02490   0.02650   0.00028  -0.00071  -0.00071
Co868     0.02490   0.02490   0.02650   0.00028   0.00071   0.00071
C869      0.01940   0.07600   0.04700   0.00000   0.00000   0.01000
C870      0.02310   0.06200   0.03900   0.00000   0.00000   0.00900
C871      0.02250   0.08400   0.04600   0.00000   0.00000   0.03100
C872      0.02300   0.08800   0.05200   0.00000   0.00000  -0.00900
C873      0.01940   0.07600   0.04700   0.00000   0.00000  -0.01000
C874      0.02310   0.06200   0.03900   0.00000   0.00000  -0.00900
C875      0.02250   0.08400   0.04600   0.00000   0.00000  -0.03100
C876      0.02300   0.08800   0.05200   0.00000   0.00000   0.00900
C877      0.07600   0.01940   0.04700   0.00000  -0.01000   0.00000
C878      0.06200   0.02310   0.03900   0.00000  -0.00900   0.00000
C879      0.08400   0.02250   0.04600   0.00000  -0.03100   0.00000
C880      0.08800   0.02300   0.05200   0.00000   0.00900   0.00000
C881      0.07600   0.01940   0.04700   0.00000   0.01000   0.00000
C882      0.06200   0.02310   0.03900   0.00000   0.00900   0.00000
C883      0.08400   0.02250   0.04600   0.00000   0.03100   0.00000
C884      0.08800   0.02300   0.05200   0.00000  -0.00900   0.00000
N885      0.02330   0.04710   0.03030  -0.00200  -0.00030   0.00130
N886      0.02450   0.05650   0.03410  -0.00140   0.00040   0.00230
C887      0.02400   0.07500   0.03410  -0.00840   0.00570   0.01140
C888      0.02660   0.09300   0.03870   0.00000   0.00480   0.00300
C889      0.02540   0.13000   0.04900   0.00200  -0.00310   0.02800
C890      0.02480   0.15200   0.05000   0.00000  -0.00010   0.01500
N891      0.02330   0.04710   0.03030  -0.00200   0.00030  -0.00130
N892      0.02450   0.05650   0.03410  -0.00140  -0.00040  -0.00230
C893      0.02400   0.07500   0.03410  -0.00840  -0.00570  -0.01140
C894      0.02660   0.09300   0.03870   0.00000  -0.00480  -0.00300
C895      0.02540   0.13000   0.04900   0.00200   0.00310  -0.02800
C896      0.02480   0.15200   0.05000   0.00000   0.00010  -0.01500
N897      0.04710   0.02330   0.03030   0.00200  -0.00130  -0.00030
N898      0.05650   0.02450   0.03410   0.00140  -0.00230   0.00040
C899      0.07500   0.02400   0.03410   0.00840  -0.01140   0.00570
C900      0.09300   0.02660   0.03870   0.00000  -0.00300   0.00480
C901      0.13000   0.02540   0.04900  -0.00200  -0.02800  -0.00310
C902      0.15200   0.02480   0.05000   0.00000  -0.01500  -0.00010
N903      0.04710   0.02330   0.03030   0.00200   0.00130   0.00030
N904      0.05650   0.02450   0.03410   0.00140   0.00230  -0.00040
C905      0.07500   0.02400   0.03410   0.00840   0.01140  -0.00570
C906      0.09300   0.02660   0.03870   0.00000   0.00300  -0.00480
C907      0.13000   0.02540   0.04900  -0.00200   0.02800   0.00310
C908      0.15200   0.02480   0.05000   0.00000   0.01500   0.00010
N909      0.02330   0.04710   0.03030   0.00200  -0.00030  -0.00130
N910      0.02450   0.05650   0.03410   0.00140   0.00040  -0.00230
C911      0.02400   0.07500   0.03410   0.00840   0.00570  -0.01140
C912      0.02660   0.09300   0.03870   0.00000   0.00480  -0.00300
C913      0.02540   0.13000   0.04900  -0.00200  -0.00310  -0.02800
C914      0.02480   0.15200   0.05000   0.00000  -0.00010  -0.01500
N915      0.02330   0.04710   0.03030   0.00200   0.00030   0.00130
N916      0.02450   0.05650   0.03410   0.00140  -0.00040   0.00230
C917      0.02400   0.07500   0.03410   0.00840  -0.00570   0.01140
C918      0.02660   0.09300   0.03870   0.00000  -0.00480   0.00300
C919      0.02540   0.13000   0.04900  -0.00200   0.00310   0.02800
C920      0.02480   0.15200   0.05000   0.00000   0.00010   0.01500
N921      0.04710   0.02330   0.03030  -0.00200  -0.00130   0.00030
N922      0.05650   0.02450   0.03410  -0.00140  -0.00230  -0.00040
C923      0.07500   0.02400   0.03410  -0.00840  -0.01140  -0.00570
C924      0.09300   0.02660   0.03870   0.00000  -0.00300  -0.00480
C925      0.13000   0.02540   0.04900   0.00200  -0.02800   0.00310
C926      0.15200   0.02480   0.05000   0.00000  -0.01500   0.00010
N927      0.04710   0.02330   0.03030  -0.00200   0.00130  -0.00030
N928      0.05650   0.02450   0.03410  -0.00140   0.00230   0.00040
C929      0.07500   0.02400   0.03410  -0.00840   0.01140   0.00570
C930      0.09300   0.02660   0.03870   0.00000   0.00300   0.00480
C931      0.13000   0.02540   0.04900   0.00200   0.02800  -0.00310
C932      0.15200   0.02480   0.05000   0.00000   0.01500  -0.00010
Co933     0.02490   0.02490   0.02650  -0.00028  -0.00071   0.00071
Co934     0.02490   0.02490   0.02650  -0.00028   0.00071  -0.00071
Co935     0.02490   0.02490   0.02650   0.00028  -0.00071  -0.00071
Co936     0.02490   0.02490   0.02650   0.00028   0.00071   0.00071
C937      0.01940   0.07600   0.04700   0.00000   0.00000   0.01000
C938      0.02310   0.06200   0.03900   0.00000   0.00000   0.00900
C939      0.02250   0.08400   0.04600   0.00000   0.00000   0.03100
C940      0.02300   0.08800   0.05200   0.00000   0.00000  -0.00900
C941      0.01940   0.07600   0.04700   0.00000   0.00000  -0.01000
C942      0.02310   0.06200   0.03900   0.00000   0.00000  -0.00900
C943      0.02250   0.08400   0.04600   0.00000   0.00000  -0.03100
C944      0.02300   0.08800   0.05200   0.00000   0.00000   0.00900
C945      0.07600   0.01940   0.04700   0.00000  -0.01000   0.00000
C946      0.06200   0.02310   0.03900   0.00000  -0.00900   0.00000
C947      0.08400   0.02250   0.04600   0.00000  -0.03100   0.00000
C948      0.08800   0.02300   0.05200   0.00000   0.00900   0.00000
C949      0.07600   0.01940   0.04700   0.00000   0.01000   0.00000
C950      0.06200   0.02310   0.03900   0.00000   0.00900   0.00000
C951      0.08400   0.02250   0.04600   0.00000   0.03100   0.00000
C952      0.08800   0.02300   0.05200   0.00000  -0.00900   0.00000
N953      0.02330   0.04710   0.03030  -0.00200  -0.00030   0.00130
N954      0.02450   0.05650   0.03410  -0.00140   0.00040   0.00230
C955      0.02400   0.07500   0.03410  -0.00840   0.00570   0.01140
C956      0.02660   0.09300   0.03870   0.00000   0.00480   0.00300
C957      0.02540   0.13000   0.04900   0.00200  -0.00310   0.02800
C958      0.02480   0.15200   0.05000   0.00000  -0.00010   0.01500
N959      0.02330   0.04710   0.03030  -0.00200   0.00030  -0.00130
N960      0.02450   0.05650   0.03410  -0.00140  -0.00040  -0.00230
C961      0.02400   0.07500   0.03410  -0.00840  -0.00570  -0.01140
C962      0.02660   0.09300   0.03870   0.00000  -0.00480  -0.00300
C963      0.02540   0.13000   0.04900   0.00200   0.00310  -0.02800
C964      0.02480   0.15200   0.05000   0.00000   0.00010  -0.01500
N965      0.04710   0.02330   0.03030   0.00200  -0.00130  -0.00030
N966      0.05650   0.02450   0.03410   0.00140  -0.00230   0.00040
C967      0.07500   0.02400   0.03410   0.00840  -0.01140   0.00570
C968      0.09300   0.02660   0.03870   0.00000  -0.00300   0.00480
C969      0.13000   0.02540   0.04900  -0.00200  -0.02800  -0.00310
C970      0.15200   0.02480   0.05000   0.00000  -0.01500  -0.00010
N971      0.04710   0.02330   0.03030   0.00200   0.00130   0.00030
N972      0.05650   0.02450   0.03410   0.00140   0.00230  -0.00040
C973      0.07500   0.02400   0.03410   0.00840   0.01140  -0.00570
C974      0.09300   0.02660   0.03870   0.00000   0.00300  -0.00480
C975      0.13000   0.02540   0.04900  -0.00200   0.02800   0.00310
C976      0.15200   0.02480   0.05000   0.00000   0.01500   0.00010
N977      0.02330   0.04710   0.03030   0.00200  -0.00030  -0.00130
N978      0.02450   0.05650   0.03410   0.00140   0.00040  -0.00230
C979      0.02400   0.07500   0.03410   0.00840   0.00570  -0.01140
C980      0.02660   0.09300   0.03870   0.00000   0.00480  -0.00300
C981      0.02540   0.13000   0.04900  -0.00200  -0.00310  -0.02800
C982      0.02480   0.15200   0.05000   0.00000  -0.00010  -0.01500
N983      0.02330   0.04710   0.03030   0.00200   0.00030   0.00130
N984      0.02450   0.05650   0.03410   0.00140  -0.00040   0.00230
C985      0.02400   0.07500   0.03410   0.00840  -0.00570   0.01140
C986      0.02660   0.09300   0.03870   0.00000  -0.00480   0.00300
C987      0.02540   0.13000   0.04900  -0.00200   0.00310   0.02800
C988      0.02480   0.15200   0.05000   0.00000   0.00010   0.01500
N989      0.04710   0.02330   0.03030  -0.00200  -0.00130   0.00030
N990      0.05650   0.02450   0.03410  -0.00140  -0.00230  -0.00040
C991      0.07500   0.02400   0.03410  -0.00840  -0.01140  -0.00570
C992      0.09300   0.02660   0.03870   0.00000  -0.00300  -0.00480
C993      0.13000   0.02540   0.04900   0.00200  -0.02800   0.00310
C994      0.15200   0.02480   0.05000   0.00000  -0.01500   0.00010
N995      0.04710   0.02330   0.03030  -0.00200   0.00130  -0.00030
N996      0.05650   0.02450   0.03410  -0.00140   0.00230   0.00040
C997      0.07500   0.02400   0.03410  -0.00840   0.01140   0.00570
C998      0.09300   0.02660   0.03870   0.00000   0.00300   0.00480
C999      0.13000   0.02540   0.04900   0.00200   0.02800  -0.00310
C1000     0.15200   0.02480   0.05000   0.00000   0.01500  -0.00010
Co1001    0.02490   0.02490   0.02650  -0.00028  -0.00071   0.00071
Co1002    0.02490   0.02490   0.02650  -0.00028   0.00071  -0.00071
Co1003    0.02490   0.02490   0.02650   0.00028  -0.00071  -0.00071
Co1004    0.02490   0.02490   0.02650   0.00028   0.00071   0.00071
C1005     0.01940   0.07600   0.04700   0.00000   0.00000   0.01000
C1006     0.02310   0.06200   0.03900   0.00000   0.00000   0.00900
C1007     0.02250   0.08400   0.04600   0.00000   0.00000   0.03100
C1008     0.02300   0.08800   0.05200   0.00000   0.00000  -0.00900
C1009     0.01940   0.07600   0.04700   0.00000   0.00000  -0.01000
C1010     0.02310   0.06200   0.03900   0.00000   0.00000  -0.00900
C1011     0.02250   0.08400   0.04600   0.00000   0.00000  -0.03100
C1012     0.02300   0.08800   0.05200   0.00000   0.00000   0.00900
C1013     0.07600   0.01940   0.04700   0.00000  -0.01000   0.00000
C1014     0.06200   0.02310   0.03900   0.00000  -0.00900   0.00000
C1015     0.08400   0.02250   0.04600   0.00000  -0.03100   0.00000
C1016     0.08800   0.02300   0.05200   0.00000   0.00900   0.00000
C1017     0.07600   0.01940   0.04700   0.00000   0.01000   0.00000
C1018     0.06200   0.02310   0.03900   0.00000   0.00900   0.00000
C1019     0.08400   0.02250   0.04600   0.00000   0.03100   0.00000
C1020     0.08800   0.02300   0.05200   0.00000  -0.00900   0.00000
N1021     0.02330   0.04710   0.03030  -0.00200  -0.00030   0.00130
N1022     0.02450   0.05650   0.03410  -0.00140   0.00040   0.00230
C1023     0.02400   0.07500   0.03410  -0.00840   0.00570   0.01140
C1024     0.02660   0.09300   0.03870   0.00000   0.00480   0.00300
C1025     0.02540   0.13000   0.04900   0.00200  -0.00310   0.02800
C1026     0.02480   0.15200   0.05000   0.00000  -0.00010   0.01500
N1027     0.02330   0.04710   0.03030  -0.00200   0.00030  -0.00130
N1028     0.02450   0.05650   0.03410  -0.00140  -0.00040  -0.00230
C1029     0.02400   0.07500   0.03410  -0.00840  -0.00570  -0.01140
C1030     0.02660   0.09300   0.03870   0.00000  -0.00480  -0.00300
C1031     0.02540   0.13000   0.04900   0.00200   0.00310  -0.02800
C1032     0.02480   0.15200   0.05000   0.00000   0.00010  -0.01500
N1033     0.04710   0.02330   0.03030   0.00200  -0.00130  -0.00030
N1034     0.05650   0.02450   0.03410   0.00140  -0.00230   0.00040
C1035     0.07500   0.02400   0.03410   0.00840  -0.01140   0.00570
C1036     0.09300   0.02660   0.03870   0.00000  -0.00300   0.00480
C1037     0.13000   0.02540   0.04900  -0.00200  -0.02800  -0.00310
C1038     0.15200   0.02480   0.05000   0.00000  -0.01500  -0.00010
N1039     0.04710   0.02330   0.03030   0.00200   0.00130   0.00030
N1040     0.05650   0.02450   0.03410   0.00140   0.00230  -0.00040
C1041     0.07500   0.02400   0.03410   0.00840   0.01140  -0.00570
C1042     0.09300   0.02660   0.03870   0.00000   0.00300  -0.00480
C1043     0.13000   0.02540   0.04900  -0.00200   0.02800   0.00310
C1044     0.15200   0.02480   0.05000   0.00000   0.01500   0.00010
N1045     0.02330   0.04710   0.03030   0.00200  -0.00030  -0.00130
N1046     0.02450   0.05650   0.03410   0.00140   0.00040  -0.00230
C1047     0.02400   0.07500   0.03410   0.00840   0.00570  -0.01140
C1048     0.02660   0.09300   0.03870   0.00000   0.00480  -0.00300
C1049     0.02540   0.13000   0.04900  -0.00200  -0.00310  -0.02800
C1050     0.02480   0.15200   0.05000   0.00000  -0.00010  -0.01500
N1051     0.02330   0.04710   0.03030   0.00200   0.00030   0.00130
N1052     0.02450   0.05650   0.03410   0.00140  -0.00040   0.00230
C1053     0.02400   0.07500   0.03410   0.00840  -0.00570   0.01140
C1054     0.02660   0.09300   0.03870   0.00000  -0.00480   0.00300
C1055     0.02540   0.13000   0.04900  -0.00200   0.00310   0.02800
C1056     0.02480   0.15200   0.05000   0.00000   0.00010   0.01500
N1057     0.04710   0.02330   0.03030  -0.00200  -0.00130   0.00030
N1058     0.05650   0.02450   0.03410  -0.00140  -0.00230  -0.00040
C1059     0.07500   0.02400   0.03410  -0.00840  -0.01140  -0.00570
C1060     0.09300   0.02660   0.03870   0.00000  -0.00300  -0.00480
C1061     0.13000   0.02540   0.04900   0.00200  -0.02800   0.00310
C1062     0.15200   0.02480   0.05000   0.00000  -0.01500   0.00010
N1063     0.04710   0.02330   0.03030  -0.00200   0.00130  -0.00030
N1064     0.05650   0.02450   0.03410  -0.00140   0.00230   0.00040
C1065     0.07500   0.02400   0.03410  -0.00840   0.01140   0.00570
C1066     0.09300   0.02660   0.03870   0.00000   0.00300   0.00480
C1067     0.13000   0.02540   0.04900   0.00200   0.02800  -0.00310
C1068     0.15200   0.02480   0.05000   0.00000   0.01500  -0.00010
Co1069    0.02490   0.02490   0.02650  -0.00028  -0.00071   0.00071
Co1070    0.02490   0.02490   0.02650  -0.00028   0.00071  -0.00071
Co1071    0.02490   0.02490   0.02650   0.00028  -0.00071  -0.00071
Co1072    0.02490   0.02490   0.02650   0.00028   0.00071   0.00071
C1073     0.01940   0.07600   0.04700   0.00000   0.00000   0.01000
C1074     0.02310   0.06200   0.03900   0.00000   0.00000   0.00900
C1075     0.02250   0.08400   0.04600   0.00000   0.00000   0.03100
C1076     0.02300   0.08800   0.05200   0.00000   0.00000  -0.00900
C1077     0.01940   0.07600   0.04700   0.00000   0.00000  -0.01000
C1078     0.02310   0.06200   0.03900   0.00000   0.00000  -0.00900
C1079     0.02250   0.08400   0.04600   0.00000   0.00000  -0.03100
C1080     0.02300   0.08800   0.05200   0.00000   0.00000   0.00900
C1081     0.07600   0.01940   0.04700   0.00000  -0.01000   0.00000
C1082     0.06200   0.02310   0.03900   0.00000  -0.00900   0.00000
C1083     0.08400   0.02250   0.04600   0.00000  -0.03100   0.00000
C1084     0.08800   0.02300   0.05200   0.00000   0.00900   0.00000
C1085     0.07600   0.01940   0.04700   0.00000   0.01000   0.00000
C1086     0.06200   0.02310   0.03900   0.00000   0.00900   0.00000
C1087     0.08400   0.02250   0.04600   0.00000   0.03100   0.00000
C1088     0.08800   0.02300   0.05200   0.00000  -0.00900   0.00000
N1089     0.02330   0.04710   0.03030  -0.00200  -0.00030   0.00130
N1090     0.02450   0.05650   0.03410  -0.00140   0.00040   0.00230
C1091     0.02400   0.07500   0.03410  -0.00840   0.00570   0.01140
C1092     0.02660   0.09300   0.03870   0.00000   0.00480   0.00300
C1093     0.02540   0.13000   0.04900   0.00200  -0.00310   0.02800
C1094     0.02480   0.15200   0.05000   0.00000  -0.00010   0.01500
N1095     0.02330   0.04710   0.03030  -0.00200   0.00030  -0.00130
N1096     0.02450   0.05650   0.03410  -0.00140  -0.00040  -0.00230
C1097     0.02400   0.07500   0.03410  -0.00840  -0.00570  -0.01140
C1098     0.02660   0.09300   0.03870   0.00000  -0.00480  -0.00300
C1099     0.02540   0.13000   0.04900   0.00200   0.00310  -0.02800
C1100     0.02480   0.15200   0.05000   0.00000   0.00010  -0.01500
N1101     0.04710   0.02330   0.03030   0.00200  -0.00130  -0.00030
N1102     0.05650   0.02450   0.03410   0.00140  -0.00230   0.00040
C1103     0.07500   0.02400   0.03410   0.00840  -0.01140   0.00570
C1104     0.09300   0.02660   0.03870   0.00000  -0.00300   0.00480
C1105     0.13000   0.02540   0.04900  -0.00200  -0.02800  -0.00310
C1106     0.15200   0.02480   0.05000   0.00000  -0.01500  -0.00010
N1107     0.04710   0.02330   0.03030   0.00200   0.00130   0.00030
N1108     0.05650   0.02450   0.03410   0.00140   0.00230  -0.00040
C1109     0.07500   0.02400   0.03410   0.00840   0.01140  -0.00570
C1110     0.09300   0.02660   0.03870   0.00000   0.00300  -0.00480
C1111     0.13000   0.02540   0.04900  -0.00200   0.02800   0.00310
C1112     0.15200   0.02480   0.05000   0.00000   0.01500   0.00010
N1113     0.02330   0.04710   0.03030   0.00200  -0.00030  -0.00130
N1114     0.02450   0.05650   0.03410   0.00140   0.00040  -0.00230
C1115     0.02400   0.07500   0.03410   0.00840   0.00570  -0.01140
C1116     0.02660   0.09300   0.03870   0.00000   0.00480  -0.00300
C1117     0.02540   0.13000   0.04900  -0.00200  -0.00310  -0.02800
C1118     0.02480   0.15200   0.05000   0.00000  -0.00010  -0.01500
N1119     0.02330   0.04710   0.03030   0.00200   0.00030   0.00130
N1120     0.02450   0.05650   0.03410   0.00140  -0.00040   0.00230
C1121     0.02400   0.07500   0.03410   0.00840  -0.00570   0.01140
C1122     0.02660   0.09300   0.03870   0.00000  -0.00480   0.00300
C1123     0.02540   0.13000   0.04900  -0.00200   0.00310   0.02800
C1124     0.02480   0.15200   0.05000   0.00000   0.00010   0.01500
N1125     0.04710   0.02330   0.03030  -0.00200  -0.00130   0.00030
N1126     0.05650   0.02450   0.03410  -0.00140  -0.00230  -0.00040
C1127     0.07500   0.02400   0.03410  -0.00840  -0.01140  -0.00570
C1128     0.09300   0.02660   0.03870   0.00000  -0.00300  -0.00480
C1129     0.13000   0.02540   0.04900   0.00200  -0.02800   0.00310
C1130     0.15200   0.02480   0.05000   0.00000  -0.01500   0.00010
N1131     0.04710   0.02330   0.03030  -0.00200   0.00130  -0.00030
N1132     0.05650   0.02450   0.03410  -0.00140   0.00230   0.00040
C1133     0.07500   0.02400   0.03410  -0.00840   0.01140   0.00570
C1134     0.09300   0.02660   0.03870   0.00000   0.00300   0.00480
C1135     0.13000   0.02540   0.04900   0.00200   0.02800  -0.00310
C1136     0.15200   0.02480   0.05000   0.00000   0.01500  -0.00010
Co1137    0.02490   0.02490   0.02650  -0.00028  -0.00071   0.00071
Co1138    0.02490   0.02490   0.02650  -0.00028   0.00071  -0.00071
Co1139    0.02490   0.02490   0.02650   0.00028  -0.00071  -0.00071
Co1140    0.02490   0.02490   0.02650   0.00028   0.00071   0.00071
C1141     0.01940   0.07600   0.04700   0.00000   0.00000   0.01000
C1142     0.02310   0.06200   0.03900   0.00000   0.00000   0.00900
C1143     0.02250   0.08400   0.04600   0.00000   0.00000   0.03100
C1144     0.02300   0.08800   0.05200   0.00000   0.00000  -0.00900
C1145     0.01940   0.07600   0.04700   0.00000   0.00000  -0.01000
C1146     0.02310   0.06200   0.03900   0.00000   0.00000  -0.00900
C1147     0.02250   0.08400   0.04600   0.00000   0.00000  -0.03100
C1148     0.02300   0.08800   0.05200   0.00000   0.00000   0.00900
C1149     0.07600   0.01940   0.04700   0.00000  -0.01000   0.00000
C1150     0.06200   0.02310   0.03900   0.00000  -0.00900   0.00000
C1151     0.08400   0.02250   0.04600   0.00000  -0.03100   0.00000
C1152     0.08800   0.02300   0.05200   0.00000   0.00900   0.00000
C1153     0.07600   0.01940   0.04700   0.00000   0.01000   0.00000
C1154     0.06200   0.02310   0.03900   0.00000   0.00900   0.00000
C1155     0.08400   0.02250   0.04600   0.00000   0.03100   0.00000
C1156     0.08800   0.02300   0.05200   0.00000  -0.00900   0.00000
N1157     0.02330   0.04710   0.03030  -0.00200  -0.00030   0.00130
N1158     0.02450   0.05650   0.03410  -0.00140   0.00040   0.00230
C1159     0.02400   0.07500   0.03410  -0.00840   0.00570   0.01140
C1160     0.02660   0.09300   0.03870   0.00000   0.00480   0.00300
C1161     0.02540   0.13000   0.04900   0.00200  -0.00310   0.02800
C1162     0.02480   0.15200   0.05000   0.00000  -0.00010   0.01500
N1163     0.02330   0.04710   0.03030  -0.00200   0.00030  -0.00130
N1164     0.02450   0.05650   0.03410  -0.00140  -0.00040  -0.00230
C1165     0.02400   0.07500   0.03410  -0.00840  -0.00570  -0.01140
C1166     0.02660   0.09300   0.03870   0.00000  -0.00480  -0.00300
C1167     0.02540   0.13000   0.04900   0.00200   0.00310  -0.02800
C1168     0.02480   0.15200   0.05000   0.00000   0.00010  -0.01500
N1169     0.04710   0.02330   0.03030   0.00200  -0.00130  -0.00030
N1170     0.05650   0.02450   0.03410   0.00140  -0.00230   0.00040
C1171     0.07500   0.02400   0.03410   0.00840  -0.01140   0.00570
C1172     0.09300   0.02660   0.03870   0.00000  -0.00300   0.00480
C1173     0.13000   0.02540   0.04900  -0.00200  -0.02800  -0.00310
C1174     0.15200   0.02480   0.05000   0.00000  -0.01500  -0.00010
N1175     0.04710   0.02330   0.03030   0.00200   0.00130   0.00030
N1176     0.05650   0.02450   0.03410   0.00140   0.00230  -0.00040
C1177     0.07500   0.02400   0.03410   0.00840   0.01140  -0.00570
C1178     0.09300   0.02660   0.03870   0.00000   0.00300  -0.00480
C1179     0.13000   0.02540   0.04900  -0.00200   0.02800   0.00310
C1180     0.15200   0.02480   0.05000   0.00000   0.01500   0.00010
N1181     0.02330   0.04710   0.03030   0.00200  -0.00030  -0.00130
N1182     0.02450   0.05650   0.03410   0.00140   0.00040  -0.00230
C1183     0.02400   0.07500   0.03410   0.00840   0.00570  -0.01140
C1184     0.02660   0.09300   0.03870   0.00000   0.00480  -0.00300
C1185     0.02540   0.13000   0.04900  -0.00200  -0.00310  -0.02800
C1186     0.02480   0.15200   0.05000   0.00000  -0.00010  -0.01500
N1187     0.02330   0.04710   0.03030   0.00200   0.00030   0.00130
N1188     0.02450   0.05650   0.03410   0.00140  -0.00040   0.00230
C1189     0.02400   0.07500   0.03410   0.00840  -0.00570   0.01140
C1190     0.02660   0.09300   0.03870   0.00000  -0.00480   0.00300
C1191     0.02540   0.13000   0.04900  -0.00200   0.00310   0.02800
C1192     0.02480   0.15200   0.05000   0.00000   0.00010   0.01500
N1193     0.04710   0.02330   0.03030  -0.00200  -0.00130   0.00030
N1194     0.05650   0.02450   0.03410  -0.00140  -0.00230  -0.00040
C1195     0.07500   0.02400   0.03410  -0.00840  -0.01140  -0.00570
C1196     0.09300   0.02660   0.03870   0.00000  -0.00300  -0.00480
C1197     0.13000   0.02540   0.04900   0.00200  -0.02800   0.00310
C1198     0.15200   0.02480   0.05000   0.00000  -0.01500   0.00010
N1199     0.04710   0.02330   0.03030  -0.00200   0.00130  -0.00030
N1200     0.05650   0.02450   0.03410  -0.00140   0.00230   0.00040
C1201     0.07500   0.02400   0.03410  -0.00840   0.01140   0.00570
C1202     0.09300   0.02660   0.03870   0.00000   0.00300   0.00480
C1203     0.13000   0.02540   0.04900   0.00200   0.02800  -0.00310
C1204     0.15200   0.02480   0.05000   0.00000   0.01500  -0.00010
Co1205    0.02490   0.02490   0.02650  -0.00028  -0.00071   0.00071
Co1206    0.02490   0.02490   0.02650  -0.00028   0.00071  -0.00071
Co1207    0.02490   0.02490   0.02650   0.00028  -0.00071  -0.00071
Co1208    0.02490   0.02490   0.02650   0.00028   0.00071   0.00071
C1209     0.01940   0.07600   0.04700   0.00000   0.00000   0.01000
C1210     0.02310   0.06200   0.03900   0.00000   0.00000   0.00900
C1211     0.02250   0.08400   0.04600   0.00000   0.00000   0.03100
C1212     0.02300   0.08800   0.05200   0.00000   0.00000  -0.00900
C1213     0.01940   0.07600   0.04700   0.00000   0.00000  -0.01000
C1214     0.02310   0.06200   0.03900   0.00000   0.00000  -0.00900
C1215     0.02250   0.08400   0.04600   0.00000   0.00000  -0.03100
C1216     0.02300   0.08800   0.05200   0.00000   0.00000   0.00900
C1217     0.07600   0.01940   0.04700   0.00000  -0.01000   0.00000
C1218     0.06200   0.02310   0.03900   0.00000  -0.00900   0.00000
C1219     0.08400   0.02250   0.04600   0.00000  -0.03100   0.00000
C1220     0.08800   0.02300   0.05200   0.00000   0.00900   0.00000
C1221     0.07600   0.01940   0.04700   0.00000   0.01000   0.00000
C1222     0.06200   0.02310   0.03900   0.00000   0.00900   0.00000
C1223     0.08400   0.02250   0.04600   0.00000   0.03100   0.00000
C1224     0.08800   0.02300   0.05200   0.00000  -0.00900   0.00000
N1225     0.02330   0.04710   0.03030  -0.00200  -0.00030   0.00130
N1226     0.02450   0.05650   0.03410  -0.00140   0.00040   0.00230
C1227     0.02400   0.07500   0.03410  -0.00840   0.00570   0.01140
C1228     0.02660   0.09300   0.03870   0.00000   0.00480   0.00300
C1229     0.02540   0.13000   0.04900   0.00200  -0.00310   0.02800
C1230     0.02480   0.15200   0.05000   0.00000  -0.00010   0.01500
N1231     0.02330   0.04710   0.03030  -0.00200   0.00030  -0.00130
N1232     0.02450   0.05650   0.03410  -0.00140  -0.00040  -0.00230
C1233     0.02400   0.07500   0.03410  -0.00840  -0.00570  -0.01140
C1234     0.02660   0.09300   0.03870   0.00000  -0.00480  -0.00300
C1235     0.02540   0.13000   0.04900   0.00200   0.00310  -0.02800
C1236     0.02480   0.15200   0.05000   0.00000   0.00010  -0.01500
N1237     0.04710   0.02330   0.03030   0.00200  -0.00130  -0.00030
N1238     0.05650   0.02450   0.03410   0.00140  -0.00230   0.00040
C1239     0.07500   0.02400   0.03410   0.00840  -0.01140   0.00570
C1240     0.09300   0.02660   0.03870   0.00000  -0.00300   0.00480
C1241     0.13000   0.02540   0.04900  -0.00200  -0.02800  -0.00310
C1242     0.15200   0.02480   0.05000   0.00000  -0.01500  -0.00010
N1243     0.04710   0.02330   0.03030   0.00200   0.00130   0.00030
N1244     0.05650   0.02450   0.03410   0.00140   0.00230  -0.00040
C1245     0.07500   0.02400   0.03410   0.00840   0.01140  -0.00570
C1246     0.09300   0.02660   0.03870   0.00000   0.00300  -0.00480
C1247     0.13000   0.02540   0.04900  -0.00200   0.02800   0.00310
C1248     0.15200   0.02480   0.05000   0.00000   0.01500   0.00010
N1249     0.02330   0.04710   0.03030   0.00200  -0.00030  -0.00130
N1250     0.02450   0.05650   0.03410   0.00140   0.00040  -0.00230
C1251     0.02400   0.07500   0.03410   0.00840   0.00570  -0.01140
C1252     0.02660   0.09300   0.03870   0.00000   0.00480  -0.00300
C1253     0.02540   0.13000   0.04900  -0.00200  -0.00310  -0.02800
C1254     0.02480   0.15200   0.05000   0.00000  -0.00010  -0.01500
N1255     0.02330   0.04710   0.03030   0.00200   0.00030   0.00130
N1256     0.02450   0.05650   0.03410   0.00140  -0.00040   0.00230
C1257     0.02400   0.07500   0.03410   0.00840  -0.00570   0.01140
C1258     0.02660   0.09300   0.03870   0.00000  -0.00480   0.00300
C1259     0.02540   0.13000   0.04900  -0.00200   0.00310   0.02800
C1260     0.02480   0.15200   0.05000   0.00000   0.00010   0.01500
N1261     0.04710   0.02330   0.03030  -0.00200  -0.00130   0.00030
N1262     0.05650   0.02450   0.03410  -0.00140  -0.00230  -0.00040
C1263     0.07500   0.02400   0.03410  -0.00840  -0.01140  -0.00570
C1264     0.09300   0.02660   0.03870   0.00000  -0.00300  -0.00480
C1265     0.13000   0.02540   0.04900   0.00200  -0.02800   0.00310
C1266     0.15200   0.02480   0.05000   0.00000  -0.01500   0.00010
N1267     0.04710   0.02330   0.03030  -0.00200   0.00130  -0.00030
N1268     0.05650   0.02450   0.03410  -0.00140   0.00230   0.00040
C1269     0.07500   0.02400   0.03410  -0.00840   0.01140   0.00570
C1270     0.09300   0.02660   0.03870   0.00000   0.00300   0.00480
C1271     0.13000   0.02540   0.04900   0.00200   0.02800  -0.00310
C1272     0.15200   0.02480   0.05000   0.00000   0.01500  -0.00010
Co1273    0.02490   0.02490   0.02650  -0.00028  -0.00071   0.00071
Co1274    0.02490   0.02490   0.02650  -0.00028   0.00071  -0.00071
Co1275    0.02490   0.02490   0.02650   0.00028  -0.00071  -0.00071
Co1276    0.02490   0.02490   0.02650   0.00028   0.00071   0.00071
C1277     0.01940   0.07600   0.04700   0.00000   0.00000   0.01000
C1278     0.02310   0.06200   0.03900   0.00000   0.00000   0.00900
C1279     0.02250   0.08400   0.04600   0.00000   0.00000   0.03100
C1280     0.02300   0.08800   0.05200   0.00000   0.00000  -0.00900
C1281     0.01940   0.07600   0.04700   0.00000   0.00000  -0.01000
C1282     0.02310   0.06200   0.03900   0.00000   0.00000  -0.00900
C1283     0.02250   0.08400   0.04600   0.00000   0.00000  -0.03100
C1284     0.02300   0.08800   0.05200   0.00000   0.00000   0.00900
C1285     0.07600   0.01940   0.04700   0.00000  -0.01000   0.00000
C1286     0.06200   0.02310   0.03900   0.00000  -0.00900   0.00000
C1287     0.08400   0.02250   0.04600   0.00000  -0.03100   0.00000
C1288     0.08800   0.02300   0.05200   0.00000   0.00900   0.00000
C1289     0.07600   0.01940   0.04700   0.00000   0.01000   0.00000
C1290     0.06200   0.02310   0.03900   0.00000   0.00900   0.00000
C1291     0.08400   0.02250   0.04600   0.00000   0.03100   0.00000
C1292     0.08800   0.02300   0.05200   0.00000  -0.00900   0.00000
N1293     0.02330   0.04710   0.03030  -0.00200  -0.00030   0.00130
N1294     0.02450   0.05650   0.03410  -0.00140   0.00040   0.00230
C1295     0.02400   0.07500   0.03410  -0.00840   0.00570   0.01140
C1296     0.02660   0.09300   0.03870   0.00000   0.00480   0.00300
C1297     0.02540   0.13000   0.04900   0.00200  -0.00310   0.02800
C1298     0.02480   0.15200   0.05000   0.00000  -0.00010   0.01500
N1299     0.02330   0.04710   0.03030  -0.00200   0.00030  -0.00130
N1300     0.02450   0.05650   0.03410  -0.00140  -0.00040  -0.00230
C1301     0.02400   0.07500   0.03410  -0.00840  -0.00570  -0.01140
C1302     0.02660   0.09300   0.03870   0.00000  -0.00480  -0.00300
C1303     0.02540   0.13000   0.04900   0.00200   0.00310  -0.02800
C1304     0.02480   0.15200   0.05000   0.00000   0.00010  -0.01500
N1305     0.04710   0.02330   0.03030   0.00200  -0.00130  -0.00030
N1306     0.05650   0.02450   0.03410   0.00140  -0.00230   0.00040
C1307     0.07500   0.02400   0.03410   0.00840  -0.01140   0.00570
C1308     0.09300   0.02660   0.03870   0.00000  -0.00300   0.00480
C1309     0.13000   0.02540   0.04900  -0.00200  -0.02800  -0.00310
C1310     0.15200   0.02480   0.05000   0.00000  -0.01500  -0.00010
N1311     0.04710   0.02330   0.03030   0.00200   0.00130   0.00030
N1312     0.05650   0.02450   0.03410   0.00140   0.00230  -0.00040
C1313     0.07500   0.02400   0.03410   0.00840   0.01140  -0.00570
C1314     0.09300   0.02660   0.03870   0.00000   0.00300  -0.00480
C1315     0.13000   0.02540   0.04900  -0.00200   0.02800   0.00310
C1316     0.15200   0.02480   0.05000   0.00000   0.01500   0.00010
N1317     0.02330   0.04710   0.03030   0.00200  -0.00030  -0.00130
N1318     0.02450   0.05650   0.03410   0.00140   0.00040  -0.00230
C1319     0.02400   0.07500   0.03410   0.00840   0.00570  -0.01140
C1320     0.02660   0.09300   0.03870   0.00000   0.00480  -0.00300
C1321     0.02540   0.13000   0.04900  -0.00200  -0.00310  -0.02800
C1322     0.02480   0.15200   0.05000   0.00000  -0.00010  -0.01500
N1323     0.02330   0.04710   0.03030   0.00200   0.00030   0.00130
N1324     0.02450   0.05650   0.03410   0.00140  -0.00040   0.00230
C1325     0.02400   0.07500   0.03410   0.00840  -0.00570   0.01140
C1326     0.02660   0.09300   0.03870   0.00000  -0.00480   0.00300
C1327     0.02540   0.13000   0.04900  -0.00200   0.00310   0.02800
C1328     0.02480   0.15200   0.05000   0.00000   0.00010   0.01500
N1329     0.04710   0.02330   0.03030  -0.00200  -0.00130   0.00030
N1330     0.05650   0.02450   0.03410  -0.00140  -0.00230  -0.00040
C1331     0.07500   0.02400   0.03410  -0.00840  -0.01140  -0.00570
C1332     0.09300   0.02660   0.03870   0.00000  -0.00300  -0.00480
C1333     0.13000   0.02540   0.04900   0.00200  -0.02800   0.00310
C1334     0.15200   0.02480   0.05000   0.00000  -0.01500   0.00010
N1335     0.04710   0.02330   0.03030  -0.00200   0.00130  -0.00030
N1336     0.05650   0.02450   0.03410  -0.00140   0.00230   0.00040
C1337     0.07500   0.02400   0.03410  -0.00840   0.01140   0.00570
C1338     0.09300   0.02660   0.03870   0.00000   0.00300   0.00480
C1339     0.13000   0.02540   0.04900   0.00200   0.02800  -0.00310
C1340     0.15200   0.02480   0.05000   0.00000   0.01500  -0.00010
Co1341    0.02490   0.02490   0.02650  -0.00028  -0.00071   0.00071
Co1342    0.02490   0.02490   0.02650  -0.00028   0.00071  -0.00071
Co1343    0.02490   0.02490   0.02650   0.00028  -0.00071  -0.00071
Co1344    0.02490   0.02490   0.02650   0.00028   0.00071   0.00071
C1345     0.01940   0.07600   0.04700   0.00000   0.00000   0.01000
C1346     0.02310   0.06200   0.03900   0.00000   0.00000   0.00900
C1347     0.02250   0.08400   0.04600   0.00000   0.00000   0.03100
C1348     0.02300   0.08800   0.05200   0.00000   0.00000  -0.00900
C1349     0.01940   0.07600   0.04700   0.00000   0.00000  -0.01000
C1350     0.02310   0.06200   0.03900   0.00000   0.00000  -0.00900
C1351     0.02250   0.08400   0.04600   0.00000   0.00000  -0.03100
C1352     0.02300   0.08800   0.05200   0.00000   0.00000   0.00900
C1353     0.07600   0.01940   0.04700   0.00000  -0.01000   0.00000
C1354     0.06200   0.02310   0.03900   0.00000  -0.00900   0.00000
C1355     0.08400   0.02250   0.04600   0.00000  -0.03100   0.00000
C1356     0.08800   0.02300   0.05200   0.00000   0.00900   0.00000
C1357     0.07600   0.01940   0.04700   0.00000   0.01000   0.00000
C1358     0.06200   0.02310   0.03900   0.00000   0.00900   0.00000
C1359     0.08400   0.02250   0.04600   0.00000   0.03100   0.00000
C1360     0.08800   0.02300   0.05200   0.00000  -0.00900   0.00000
N1361     0.02330   0.04710   0.03030  -0.00200  -0.00030   0.00130
N1362     0.02450   0.05650   0.03410  -0.00140   0.00040   0.00230
C1363     0.02400   0.07500   0.03410  -0.00840   0.00570   0.01140
C1364     0.02660   0.09300   0.03870   0.00000   0.00480   0.00300
C1365     0.02540   0.13000   0.04900   0.00200  -0.00310   0.02800
C1366     0.02480   0.15200   0.05000   0.00000  -0.00010   0.01500
N1367     0.02330   0.04710   0.03030  -0.00200   0.00030  -0.00130
N1368     0.02450   0.05650   0.03410  -0.00140  -0.00040  -0.00230
C1369     0.02400   0.07500   0.03410  -0.00840  -0.00570  -0.01140
C1370     0.02660   0.09300   0.03870   0.00000  -0.00480  -0.00300
C1371     0.02540   0.13000   0.04900   0.00200   0.00310  -0.02800
C1372     0.02480   0.15200   0.05000   0.00000   0.00010  -0.01500
N1373     0.04710   0.02330   0.03030   0.00200  -0.00130  -0.00030
N1374     0.05650   0.02450   0.03410   0.00140  -0.00230   0.00040
C1375     0.07500   0.02400   0.03410   0.00840  -0.01140   0.00570
C1376     0.09300   0.02660   0.03870   0.00000  -0.00300   0.00480
C1377     0.13000   0.02540   0.04900  -0.00200  -0.02800  -0.00310
C1378     0.15200   0.02480   0.05000   0.00000  -0.01500  -0.00010
N1379     0.04710   0.02330   0.03030   0.00200   0.00130   0.00030
N1380     0.05650   0.02450   0.03410   0.00140   0.00230  -0.00040
C1381     0.07500   0.02400   0.03410   0.00840   0.01140  -0.00570
C1382     0.09300   0.02660   0.03870   0.00000   0.00300  -0.00480
C1383     0.13000   0.02540   0.04900  -0.00200   0.02800   0.00310
C1384     0.15200   0.02480   0.05000   0.00000   0.01500   0.00010
N1385     0.02330   0.04710   0.03030   0.00200  -0.00030  -0.00130
N1386     0.02450   0.05650   0.03410   0.00140   0.00040  -0.00230
C1387     0.02400   0.07500   0.03410   0.00840   0.00570  -0.01140
C1388     0.02660   0.09300   0.03870   0.00000   0.00480  -0.00300
C1389     0.02540   0.13000   0.04900  -0.00200  -0.00310  -0.02800
C1390     0.02480   0.15200   0.05000   0.00000  -0.00010  -0.01500
N1391     0.02330   0.04710   0.03030   0.00200   0.00030   0.00130
N1392     0.02450   0.05650   0.03410   0.00140  -0.00040   0.00230
C1393     0.02400   0.07500   0.03410   0.00840  -0.00570   0.01140
C1394     0.02660   0.09300   0.03870   0.00000  -0.00480   0.00300
C1395     0.02540   0.13000   0.04900  -0.00200   0.00310   0.02800
C1396     0.02480   0.15200   0.05000   0.00000   0.00010   0.01500
N1397     0.04710   0.02330   0.03030  -0.00200  -0.00130   0.00030
N1398     0.05650   0.02450   0.03410  -0.00140  -0.00230  -0.00040
C1399     0.07500   0.02400   0.03410  -0.00840  -0.01140  -0.00570
C1400     0.09300   0.02660   0.03870   0.00000  -0.00300  -0.00480
C1401     0.13000   0.02540   0.04900   0.00200  -0.02800   0.00310
C1402     0.15200   0.02480   0.05000   0.00000  -0.01500   0.00010
N1403     0.04710   0.02330   0.03030  -0.00200   0.00130  -0.00030
N1404     0.05650   0.02450   0.03410  -0.00140   0.00230   0.00040
C1405     0.07500   0.02400   0.03410  -0.00840   0.01140   0.00570
C1406     0.09300   0.02660   0.03870   0.00000   0.00300   0.00480
C1407     0.13000   0.02540   0.04900   0.00200   0.02800  -0.00310
C1408     0.15200   0.02480   0.05000   0.00000   0.01500  -0.00010
Co1409    0.02490   0.02490   0.02650  -0.00028  -0.00071   0.00071
Co1410    0.02490   0.02490   0.02650  -0.00028   0.00071  -0.00071
Co1411    0.02490   0.02490   0.02650   0.00028  -0.00071  -0.00071
Co1412    0.02490   0.02490   0.02650   0.00028   0.00071   0.00071
C1413     0.01940   0.07600   0.04700   0.00000   0.00000   0.01000
C1414     0.02310   0.06200   0.03900   0.00000   0.00000   0.00900
C1415     0.02250   0.08400   0.04600   0.00000   0.00000   0.03100
C1416     0.02300   0.08800   0.05200   0.00000   0.00000  -0.00900
C1417     0.01940   0.07600   0.04700   0.00000   0.00000  -0.01000
C1418     0.02310   0.06200   0.03900   0.00000   0.00000  -0.00900
C1419     0.02250   0.08400   0.04600   0.00000   0.00000  -0.03100
C1420     0.02300   0.08800   0.05200   0.00000   0.00000   0.00900
C1421     0.07600   0.01940   0.04700   0.00000  -0.01000   0.00000
C1422     0.06200   0.02310   0.03900   0.00000  -0.00900   0.00000
C1423     0.08400   0.02250   0.04600   0.00000  -0.03100   0.00000
C1424     0.08800   0.02300   0.05200   0.00000   0.00900   0.00000
C1425     0.07600   0.01940   0.04700   0.00000   0.01000   0.00000
C1426     0.06200   0.02310   0.03900   0.00000   0.00900   0.00000
C1427     0.08400   0.02250   0.04600   0.00000   0.03100   0.00000
C1428     0.08800   0.02300   0.05200   0.00000  -0.00900   0.00000
N1429     0.02330   0.04710   0.03030  -0.00200  -0.00030   0.00130
N1430     0.02450   0.05650   0.03410  -0.00140   0.00040   0.00230
C1431     0.02400   0.07500   0.03410  -0.00840   0.00570   0.01140
C1432     0.02660   0.09300   0.03870   0.00000   0.00480   0.00300
C1433     0.02540   0.13000   0.04900   0.00200  -0.00310   0.02800
C1434     0.02480   0.15200   0.05000   0.00000  -0.00010   0.01500
N1435     0.02330   0.04710   0.03030  -0.00200   0.00030  -0.00130
N1436     0.02450   0.05650   0.03410  -0.00140  -0.00040  -0.00230
C1437     0.02400   0.07500   0.03410  -0.00840  -0.00570  -0.01140
C1438     0.02660   0.09300   0.03870   0.00000  -0.00480  -0.00300
C1439     0.02540   0.13000   0.04900   0.00200   0.00310  -0.02800
C1440     0.02480   0.15200   0.05000   0.00000   0.00010  -0.01500
N1441     0.04710   0.02330   0.03030   0.00200  -0.00130  -0.00030
N1442     0.05650   0.02450   0.03410   0.00140  -0.00230   0.00040
C1443     0.07500   0.02400   0.03410   0.00840  -0.01140   0.00570
C1444     0.09300   0.02660   0.03870   0.00000  -0.00300   0.00480
C1445     0.13000   0.02540   0.04900  -0.00200  -0.02800  -0.00310
C1446     0.15200   0.02480   0.05000   0.00000  -0.01500  -0.00010
N1447     0.04710   0.02330   0.03030   0.00200   0.00130   0.00030
N1448     0.05650   0.02450   0.03410   0.00140   0.00230  -0.00040
C1449     0.07500   0.02400   0.03410   0.00840   0.01140  -0.00570
C1450     0.09300   0.02660   0.03870   0.00000   0.00300  -0.00480
C1451     0.13000   0.02540   0.04900  -0.00200   0.02800   0.00310
C1452     0.15200   0.02480   0.05000   0.00000   0.01500   0.00010
N1453     0.02330   0.04710   0.03030   0.00200  -0.00030  -0.00130
N1454     0.02450   0.05650   0.03410   0.00140   0.00040  -0.00230
C1455     0.02400   0.07500   0.03410   0.00840   0.00570  -0.01140
C1456     0.02660   0.09300   0.03870   0.00000   0.00480  -0.00300
C1457     0.02540   0.13000   0.04900  -0.00200  -0.00310  -0.02800
C1458     0.02480   0.15200   0.05000   0.00000  -0.00010  -0.01500
N1459     0.02330   0.04710   0.03030   0.00200   0.00030   0.00130
N1460     0.02450   0.05650   0.03410   0.00140  -0.00040   0.00230
C1461     0.02400   0.07500   0.03410   0.00840  -0.00570   0.01140
C1462     0.02660   0.09300   0.03870   0.00000  -0.00480   0.00300
C1463     0.02540   0.13000   0.04900  -0.00200   0.00310   0.02800
C1464     0.02480   0.15200   0.05000   0.00000   0.00010   0.01500
N1465     0.04710   0.02330   0.03030  -0.00200  -0.00130   0.00030
N1466     0.05650   0.02450   0.03410  -0.00140  -0.00230  -0.00040
C1467     0.07500   0.02400   0.03410  -0.00840  -0.01140  -0.00570
C1468     0.09300   0.02660   0.03870   0.00000  -0.00300  -0.00480
C1469     0.13000   0.02540   0.04900   0.00200  -0.02800   0.00310
C1470     0.15200   0.02480   0.05000   0.00000  -0.01500   0.00010
N1471     0.04710   0.02330   0.03030  -0.00200   0.00130  -0.00030
N1472     0.05650   0.02450   0.03410  -0.00140   0.00230   0.00040
C1473     0.07500   0.02400   0.03410  -0.00840   0.01140   0.00570
C1474     0.09300   0.02660   0.03870   0.00000   0.00300   0.00480
C1475     0.13000   0.02540   0.04900   0.00200   0.02800  -0.00310
C1476     0.15200   0.02480   0.05000   0.00000   0.01500  -0.00010
Co1477    0.02490   0.02490   0.02650  -0.00028  -0.00071   0.00071
Co1478    0.02490   0.02490   0.02650  -0.00028   0.00071  -0.00071
Co1479    0.02490   0.02490   0.02650   0.00028  -0.00071  -0.00071
Co1480    0.02490   0.02490   0.02650   0.00028   0.00071   0.00071
C1481     0.01940   0.07600   0.04700   0.00000   0.00000   0.01000
C1482     0.02310   0.06200   0.03900   0.00000   0.00000   0.00900
C1483     0.02250   0.08400   0.04600   0.00000   0.00000   0.03100
C1484     0.02300   0.08800   0.05200   0.00000   0.00000  -0.00900
C1485     0.01940   0.07600   0.04700   0.00000   0.00000  -0.01000
C1486     0.02310   0.06200   0.03900   0.00000   0.00000  -0.00900
C1487     0.02250   0.08400   0.04600   0.00000   0.00000  -0.03100
C1488     0.02300   0.08800   0.05200   0.00000   0.00000   0.00900
C1489     0.07600   0.01940   0.04700   0.00000  -0.01000   0.00000
C1490     0.06200   0.02310   0.03900   0.00000  -0.00900   0.00000
C1491     0.08400   0.02250   0.04600   0.00000  -0.03100   0.00000
C1492     0.08800   0.02300   0.05200   0.00000   0.00900   0.00000
C1493     0.07600   0.01940   0.04700   0.00000   0.01000   0.00000
C1494     0.06200   0.02310   0.03900   0.00000   0.00900   0.00000
C1495     0.08400   0.02250   0.04600   0.00000   0.03100   0.00000
C1496     0.08800   0.02300   0.05200   0.00000  -0.00900   0.00000
N1497     0.02330   0.04710   0.03030  -0.00200  -0.00030   0.00130
N1498     0.02450   0.05650   0.03410  -0.00140   0.00040   0.00230
C1499     0.02400   0.07500   0.03410  -0.00840   0.00570   0.01140
C1500     0.02660   0.09300   0.03870   0.00000   0.00480   0.00300
C1501     0.02540   0.13000   0.04900   0.00200  -0.00310   0.02800
C1502     0.02480   0.15200   0.05000   0.00000  -0.00010   0.01500
N1503     0.02330   0.04710   0.03030  -0.00200   0.00030  -0.00130
N1504     0.02450   0.05650   0.03410  -0.00140  -0.00040  -0.00230
C1505     0.02400   0.07500   0.03410  -0.00840  -0.00570  -0.01140
C1506     0.02660   0.09300   0.03870   0.00000  -0.00480  -0.00300
C1507     0.02540   0.13000   0.04900   0.00200   0.00310  -0.02800
C1508     0.02480   0.15200   0.05000   0.00000   0.00010  -0.01500
N1509     0.04710   0.02330   0.03030   0.00200  -0.00130  -0.00030
N1510     0.05650   0.02450   0.03410   0.00140  -0.00230   0.00040
C1511     0.07500   0.02400   0.03410   0.00840  -0.01140   0.00570
C1512     0.09300   0.02660   0.03870   0.00000  -0.00300   0.00480
C1513     0.13000   0.02540   0.04900  -0.00200  -0.02800  -0.00310
C1514     0.15200   0.02480   0.05000   0.00000  -0.01500  -0.00010
N1515     0.04710   0.02330   0.03030   0.00200   0.00130   0.00030
N1516     0.05650   0.02450   0.03410   0.00140   0.00230  -0.00040
C1517     0.07500   0.02400   0.03410   0.00840   0.01140  -0.00570
C1518     0.09300   0.02660   0.03870   0.00000   0.00300  -0.00480
C1519     0.13000   0.02540   0.04900  -0.00200   0.02800   0.00310
C1520     0.15200   0.02480   0.05000   0.00000   0.01500   0.00010
N1521     0.02330   0.04710   0.03030   0.00200  -0.00030  -0.00130
N1522     0.02450   0.05650   0.03410   0.00140   0.00040  -0.00230
C1523     0.02400   0.07500   0.03410   0.00840   0.00570  -0.01140
C1524     0.02660   0.09300   0.03870   0.00000   0.00480  -0.00300
C1525     0.02540   0.13000   0.04900  -0.00200  -0.00310  -0.02800
C1526     0.02480   0.15200   0.05000   0.00000  -0.00010  -0.01500
N1527     0.02330   0.04710   0.03030   0.00200   0.00030   0.00130
N1528     0.02450   0.05650   0.03410   0.00140  -0.00040   0.00230
C1529     0.02400   0.07500   0.03410   0.00840  -0.00570   0.01140
C1530     0.02660   0.09300   0.03870   0.00000  -0.00480   0.00300
C1531     0.02540   0.13000   0.04900  -0.00200   0.00310   0.02800
C1532     0.02480   0.15200   0.05000   0.00000   0.00010   0.01500
N1533     0.04710   0.02330   0.03030  -0.00200  -0.00130   0.00030
N1534     0.05650   0.02450   0.03410  -0.00140  -0.00230  -0.00040
C1535     0.07500   0.02400   0.03410  -0.00840  -0.01140  -0.00570
C1536     0.09300   0.02660   0.03870   0.00000  -0.00300  -0.00480
C1537     0.13000   0.02540   0.04900   0.00200  -0.02800   0.00310
C1538     0.15200   0.02480   0.05000   0.00000  -0.01500   0.00010
N1539     0.04710   0.02330   0.03030  -0.00200   0.00130  -0.00030
N1540     0.05650   0.02450   0.03410  -0.00140   0.00230   0.00040
C1541     0.07500   0.02400   0.03410  -0.00840   0.01140   0.00570
C1542     0.09300   0.02660   0.03870   0.00000   0.00300   0.00480
C1543     0.13000   0.02540   0.04900   0.00200   0.02800  -0.00310
C1544     0.15200   0.02480   0.05000   0.00000   0.01500  -0.00010
Co1545    0.02490   0.02490   0.02650  -0.00028  -0.00071   0.00071
Co1546    0.02490   0.02490   0.02650  -0.00028   0.00071  -0.00071
Co1547    0.02490   0.02490   0.02650   0.00028  -0.00071  -0.00071
Co1548    0.02490   0.02490   0.02650   0.00028   0.00071   0.00071
C1549     0.01940   0.07600   0.04700   0.00000   0.00000   0.01000
C1550     0.02310   0.06200   0.03900   0.00000   0.00000   0.00900
C1551     0.02250   0.08400   0.04600   0.00000   0.00000   0.03100
C1552     0.02300   0.08800   0.05200   0.00000   0.00000  -0.00900
C1553     0.01940   0.07600   0.04700   0.00000   0.00000  -0.01000
C1554     0.02310   0.06200   0.03900   0.00000   0.00000  -0.00900
C1555     0.02250   0.08400   0.04600   0.00000   0.00000  -0.03100
C1556     0.02300   0.08800   0.05200   0.00000   0.00000   0.00900
C1557     0.07600   0.01940   0.04700   0.00000  -0.01000   0.00000
C1558     0.06200   0.02310   0.03900   0.00000  -0.00900   0.00000
C1559     0.08400   0.02250   0.04600   0.00000  -0.03100   0.00000
C1560     0.08800   0.02300   0.05200   0.00000   0.00900   0.00000
C1561     0.07600   0.01940   0.04700   0.00000   0.01000   0.00000
C1562     0.06200   0.02310   0.03900   0.00000   0.00900   0.00000
C1563     0.08400   0.02250   0.04600   0.00000   0.03100   0.00000
C1564     0.08800   0.02300   0.05200   0.00000  -0.00900   0.00000
N1565     0.02330   0.04710   0.03030  -0.00200  -0.00030   0.00130
N1566     0.02450   0.05650   0.03410  -0.00140   0.00040   0.00230
C1567     0.02400   0.07500   0.03410  -0.00840   0.00570   0.01140
C1568     0.02660   0.09300   0.03870   0.00000   0.00480   0.00300
C1569     0.02540   0.13000   0.04900   0.00200  -0.00310   0.02800
C1570     0.02480   0.15200   0.05000   0.00000  -0.00010   0.01500
N1571     0.02330   0.04710   0.03030  -0.00200   0.00030  -0.00130
N1572     0.02450   0.05650   0.03410  -0.00140  -0.00040  -0.00230
C1573     0.02400   0.07500   0.03410  -0.00840  -0.00570  -0.01140
C1574     0.02660   0.09300   0.03870   0.00000  -0.00480  -0.00300
C1575     0.02540   0.13000   0.04900   0.00200   0.00310  -0.02800
C1576     0.02480   0.15200   0.05000   0.00000   0.00010  -0.01500
N1577     0.04710   0.02330   0.03030   0.00200  -0.00130  -0.00030
N1578     0.05650   0.02450   0.03410   0.00140  -0.00230   0.00040
C1579     0.07500   0.02400   0.03410   0.00840  -0.01140   0.00570
C1580     0.09300   0.02660   0.03870   0.00000  -0.00300   0.00480
C1581     0.13000   0.02540   0.04900  -0.00200  -0.02800  -0.00310
C1582     0.15200   0.02480   0.05000   0.00000  -0.01500  -0.00010
N1583     0.04710   0.02330   0.03030   0.00200   0.00130   0.00030
N1584     0.05650   0.02450   0.03410   0.00140   0.00230  -0.00040
C1585     0.07500   0.02400   0.03410   0.00840   0.01140  -0.00570
C1586     0.09300   0.02660   0.03870   0.00000   0.00300  -0.00480
C1587     0.13000   0.02540   0.04900  -0.00200   0.02800   0.00310
C1588     0.15200   0.02480   0.05000   0.00000   0.01500   0.00010
N1589     0.02330   0.04710   0.03030   0.00200  -0.00030  -0.00130
N1590     0.02450   0.05650   0.03410   0.00140   0.00040  -0.00230
C1591     0.02400   0.07500   0.03410   0.00840   0.00570  -0.01140
C1592     0.02660   0.09300   0.03870   0.00000   0.00480  -0.00300
C1593     0.02540   0.13000   0.04900  -0.00200  -0.00310  -0.02800
C1594     0.02480   0.15200   0.05000   0.00000  -0.00010  -0.01500
N1595     0.02330   0.04710   0.03030   0.00200   0.00030   0.00130
N1596     0.02450   0.05650   0.03410   0.00140  -0.00040   0.00230
C1597     0.02400   0.07500   0.03410   0.00840  -0.00570   0.01140
C1598     0.02660   0.09300   0.03870   0.00000  -0.00480   0.00300
C1599     0.02540   0.13000   0.04900  -0.00200   0.00310   0.02800
C1600     0.02480   0.15200   0.05000   0.00000   0.00010   0.01500
N1601     0.04710   0.02330   0.03030  -0.00200  -0.00130   0.00030
N1602     0.05650   0.02450   0.03410  -0.00140  -0.00230  -0.00040
C1603     0.07500   0.02400   0.03410  -0.00840  -0.01140  -0.00570
C1604     0.09300   0.02660   0.03870   0.00000  -0.00300  -0.00480
C1605     0.13000   0.02540   0.04900   0.00200  -0.02800   0.00310
C1606     0.15200   0.02480   0.05000   0.00000  -0.01500   0.00010
N1607     0.04710   0.02330   0.03030  -0.00200   0.00130  -0.00030
N1608     0.05650   0.02450   0.03410  -0.00140   0.00230   0.00040
C1609     0.07500   0.02400   0.03410  -0.00840   0.01140   0.00570
C1610     0.09300   0.02660   0.03870   0.00000   0.00300   0.00480
C1611     0.13000   0.02540   0.04900   0.00200   0.02800  -0.00310
C1612     0.15200   0.02480   0.05000   0.00000   0.01500  -0.00010
Co1613    0.02490   0.02490   0.02650  -0.00028  -0.00071   0.00071
Co1614    0.02490   0.02490   0.02650  -0.00028   0.00071  -0.00071
Co1615    0.02490   0.02490   0.02650   0.00028  -0.00071  -0.00071
Co1616    0.02490   0.02490   0.02650   0.00028   0.00071   0.00071
C1617     0.01940   0.07600   0.04700   0.00000   0.00000   0.01000
C1618     0.02310   0.06200   0.03900   0.00000   0.00000   0.00900
C1619     0.02250   0.08400   0.04600   0.00000   0.00000   0.03100
C1620     0.02300   0.08800   0.05200   0.00000   0.00000  -0.00900
C1621     0.01940   0.07600   0.04700   0.00000   0.00000  -0.01000
C1622     0.02310   0.06200   0.03900   0.00000   0.00000  -0.00900
C1623     0.02250   0.08400   0.04600   0.00000   0.00000  -0.03100
C1624     0.02300   0.08800   0.05200   0.00000   0.00000   0.00900
C1625     0.07600   0.01940   0.04700   0.00000  -0.01000   0.00000
C1626     0.06200   0.02310   0.03900   0.00000  -0.00900   0.00000
C1627     0.08400   0.02250   0.04600   0.00000  -0.03100   0.00000
C1628     0.08800   0.02300   0.05200   0.00000   0.00900   0.00000
C1629     0.07600   0.01940   0.04700   0.00000   0.01000   0.00000
C1630     0.06200   0.02310   0.03900   0.00000   0.00900   0.00000
C1631     0.08400   0.02250   0.04600   0.00000   0.03100   0.00000
C1632     0.08800   0.02300   0.05200   0.00000  -0.00900   0.00000
N1633     0.02330   0.04710   0.03030  -0.00200  -0.00030   0.00130
N1634     0.02450   0.05650   0.03410  -0.00140   0.00040   0.00230
C1635     0.02400   0.07500   0.03410  -0.00840   0.00570   0.01140
C1636     0.02660   0.09300   0.03870   0.00000   0.00480   0.00300
C1637     0.02540   0.13000   0.04900   0.00200  -0.00310   0.02800
C1638     0.02480   0.15200   0.05000   0.00000  -0.00010   0.01500
N1639     0.02330   0.04710   0.03030  -0.00200   0.00030  -0.00130
N1640     0.02450   0.05650   0.03410  -0.00140  -0.00040  -0.00230
C1641     0.02400   0.07500   0.03410  -0.00840  -0.00570  -0.01140
C1642     0.02660   0.09300   0.03870   0.00000  -0.00480  -0.00300
C1643     0.02540   0.13000   0.04900   0.00200   0.00310  -0.02800
C1644     0.02480   0.15200   0.05000   0.00000   0.00010  -0.01500
N1645     0.04710   0.02330   0.03030   0.00200  -0.00130  -0.00030
N1646     0.05650   0.02450   0.03410   0.00140  -0.00230   0.00040
C1647     0.07500   0.02400   0.03410   0.00840  -0.01140   0.00570
C1648     0.09300   0.02660   0.03870   0.00000  -0.00300   0.00480
C1649     0.13000   0.02540   0.04900  -0.00200  -0.02800  -0.00310
C1650     0.15200   0.02480   0.05000   0.00000  -0.01500  -0.00010
N1651     0.04710   0.02330   0.03030   0.00200   0.00130   0.00030
N1652     0.05650   0.02450   0.03410   0.00140   0.00230  -0.00040
C1653     0.07500   0.02400   0.03410   0.00840   0.01140  -0.00570
C1654     0.09300   0.02660   0.03870   0.00000   0.00300  -0.00480
C1655     0.13000   0.02540   0.04900  -0.00200   0.02800   0.00310
C1656     0.15200   0.02480   0.05000   0.00000   0.01500   0.00010
N1657     0.02330   0.04710   0.03030   0.00200  -0.00030  -0.00130
N1658     0.02450   0.05650   0.03410   0.00140   0.00040  -0.00230
C1659     0.02400   0.07500   0.03410   0.00840   0.00570  -0.01140
C1660     0.02660   0.09300   0.03870   0.00000   0.00480  -0.00300
C1661     0.02540   0.13000   0.04900  -0.00200  -0.00310  -0.02800
C1662     0.02480   0.15200   0.05000   0.00000  -0.00010  -0.01500
N1663     0.02330   0.04710   0.03030   0.00200   0.00030   0.00130
N1664     0.02450   0.05650   0.03410   0.00140  -0.00040   0.00230
C1665     0.02400   0.07500   0.03410   0.00840  -0.00570   0.01140
C1666     0.02660   0.09300   0.03870   0.00000  -0.00480   0.00300
C1667     0.02540   0.13000   0.04900  -0.00200   0.00310   0.02800
C1668     0.02480   0.15200   0.05000   0.00000   0.00010   0.01500
N1669     0.04710   0.02330   0.03030  -0.00200  -0.00130   0.00030
N1670     0.05650   0.02450   0.03410  -0.00140  -0.00230  -0.00040
C1671     0.07500   0.02400   0.03410  -0.00840  -0.01140  -0.00570
C1672     0.09300   0.02660   0.03870   0.00000  -0.00300  -0.00480
C1673     0.13000   0.02540   0.04900   0.00200  -0.02800   0.00310
C1674     0.15200   0.02480   0.05000   0.00000  -0.01500   0.00010
N1675     0.04710   0.02330   0.03030  -0.00200   0.00130  -0.00030
N1676     0.05650   0.02450   0.03410  -0.00140   0.00230   0.00040
C1677     0.07500   0.02400   0.03410  -0.00840   0.01140   0.00570
C1678     0.09300   0.02660   0.03870   0.00000   0.00300   0.00480
C1679     0.13000   0.02540   0.04900   0.00200   0.02800  -0.00310
C1680     0.15200   0.02480   0.05000   0.00000   0.01500  -0.00010
Co1681    0.02490   0.02490   0.02650  -0.00028  -0.00071   0.00071
Co1682    0.02490   0.02490   0.02650  -0.00028   0.00071  -0.00071
Co1683    0.02490   0.02490   0.02650   0.00028  -0.00071  -0.00071
Co1684    0.02490   0.02490   0.02650   0.00028   0.00071   0.00071
C1685     0.01940   0.07600   0.04700   0.00000   0.00000   0.01000
C1686     0.02310   0.06200   0.03900   0.00000   0.00000   0.00900
C1687     0.02250   0.08400   0.04600   0.00000   0.00000   0.03100
C1688     0.02300   0.08800   0.05200   0.00000   0.00000  -0.00900
C1689     0.01940   0.07600   0.04700   0.00000   0.00000  -0.01000
C1690     0.02310   0.06200   0.03900   0.00000   0.00000  -0.00900
C1691     0.02250   0.08400   0.04600   0.00000   0.00000  -0.03100
C1692     0.02300   0.08800   0.05200   0.00000   0.00000   0.00900
C1693     0.07600   0.01940   0.04700   0.00000  -0.01000   0.00000
C1694     0.06200   0.02310   0.03900   0.00000  -0.00900   0.00000
C1695     0.08400   0.02250   0.04600   0.00000  -0.03100   0.00000
C1696     0.08800   0.02300   0.05200   0.00000   0.00900   0.00000
C1697     0.07600   0.01940   0.04700   0.00000   0.01000   0.00000
C1698     0.06200   0.02310   0.03900   0.00000   0.00900   0.00000
C1699     0.08400   0.02250   0.04600   0.00000   0.03100   0.00000
C1700     0.08800   0.02300   0.05200   0.00000  -0.00900   0.00000
N1701     0.02330   0.04710   0.03030  -0.00200  -0.00030   0.00130
N1702     0.02450   0.05650   0.03410  -0.00140   0.00040   0.00230
C1703     0.02400   0.07500   0.03410  -0.00840   0.00570   0.01140
C1704     0.02660   0.09300   0.03870   0.00000   0.00480   0.00300
C1705     0.02540   0.13000   0.04900   0.00200  -0.00310   0.02800
C1706     0.02480   0.15200   0.05000   0.00000  -0.00010   0.01500
N1707     0.02330   0.04710   0.03030  -0.00200   0.00030  -0.00130
N1708     0.02450   0.05650   0.03410  -0.00140  -0.00040  -0.00230
C1709     0.02400   0.07500   0.03410  -0.00840  -0.00570  -0.01140
C1710     0.02660   0.09300   0.03870   0.00000  -0.00480  -0.00300
C1711     0.02540   0.13000   0.04900   0.00200   0.00310  -0.02800
C1712     0.02480   0.15200   0.05000   0.00000   0.00010  -0.01500
N1713     0.04710   0.02330   0.03030   0.00200  -0.00130  -0.00030
N1714     0.05650   0.02450   0.03410   0.00140  -0.00230   0.00040
C1715     0.07500   0.02400   0.03410   0.00840  -0.01140   0.00570
C1716     0.09300   0.02660   0.03870   0.00000  -0.00300   0.00480
C1717     0.13000   0.02540   0.04900  -0.00200  -0.02800  -0.00310
C1718     0.15200   0.02480   0.05000   0.00000  -0.01500  -0.00010
N1719     0.04710   0.02330   0.03030   0.00200   0.00130   0.00030
N1720     0.05650   0.02450   0.03410   0.00140   0.00230  -0.00040
C1721     0.07500   0.02400   0.03410   0.00840   0.01140  -0.00570
C1722     0.09300   0.02660   0.03870   0.00000   0.00300  -0.00480
C1723     0.13000   0.02540   0.04900  -0.00200   0.02800   0.00310
C1724     0.15200   0.02480   0.05000   0.00000   0.01500   0.00010
N1725     0.02330   0.04710   0.03030   0.00200  -0.00030  -0.00130
N1726     0.02450   0.05650   0.03410   0.00140   0.00040  -0.00230
C1727     0.02400   0.07500   0.03410   0.00840   0.00570  -0.01140
C1728     0.02660   0.09300   0.03870   0.00000   0.00480  -0.00300
C1729     0.02540   0.13000   0.04900  -0.00200  -0.00310  -0.02800
C1730     0.02480   0.15200   0.05000   0.00000  -0.00010  -0.01500
N1731     0.02330   0.04710   0.03030   0.00200   0.00030   0.00130
N1732     0.02450   0.05650   0.03410   0.00140  -0.00040   0.00230
C1733     0.02400   0.07500   0.03410   0.00840  -0.00570   0.01140
C1734     0.02660   0.09300   0.03870   0.00000  -0.00480   0.00300
C1735     0.02540   0.13000   0.04900  -0.00200   0.00310   0.02800
C1736     0.02480   0.15200   0.05000   0.00000   0.00010   0.01500
N1737     0.04710   0.02330   0.03030  -0.00200  -0.00130   0.00030
N1738     0.05650   0.02450   0.03410  -0.00140  -0.00230  -0.00040
C1739     0.07500   0.02400   0.03410  -0.00840  -0.01140  -0.00570
C1740     0.09300   0.02660   0.03870   0.00000  -0.00300  -0.00480
C1741     0.13000   0.02540   0.04900   0.00200  -0.02800   0.00310
C1742     0.15200   0.02480   0.05000   0.00000  -0.01500   0.00010
N1743     0.04710   0.02330   0.03030  -0.00200   0.00130  -0.00030
N1744     0.05650   0.02450   0.03410  -0.00140   0.00230   0.00040
C1745     0.07500   0.02400   0.03410  -0.00840   0.01140   0.00570
C1746     0.09300   0.02660   0.03870   0.00000   0.00300   0.00480
C1747     0.13000   0.02540   0.04900   0.00200   0.02800  -0.00310
C1748     0.15200   0.02480   0.05000   0.00000   0.01500  -0.00010
Co1749    0.02490   0.02490   0.02650  -0.00028  -0.00071   0.00071
Co1750    0.02490   0.02490   0.02650  -0.00028   0.00071  -0.00071
Co1751    0.02490   0.02490   0.02650   0.00028  -0.00071  -0.00071
Co1752    0.02490   0.02490   0.02650   0.00028   0.00071   0.00071
C1753     0.01940   0.07600   0.04700   0.00000   0.00000   0.01000
C1754     0.02310   0.06200   0.03900   0.00000   0.00000   0.00900
C1755     0.02250   0.08400   0.04600   0.00000   0.00000   0.03100
C1756     0.02300   0.08800   0.05200   0.00000   0.00000  -0.00900
C1757     0.01940   0.07600   0.04700   0.00000   0.00000  -0.01000
C1758     0.02310   0.06200   0.03900   0.00000   0.00000  -0.00900
C1759     0.02250   0.08400   0.04600   0.00000   0.00000  -0.03100
C1760     0.02300   0.08800   0.05200   0.00000   0.00000   0.00900
C1761     0.07600   0.01940   0.04700   0.00000  -0.01000   0.00000
C1762     0.06200   0.02310   0.03900   0.00000  -0.00900   0.00000
C1763     0.08400   0.02250   0.04600   0.00000  -0.03100   0.00000
C1764     0.08800   0.02300   0.05200   0.00000   0.00900   0.00000
C1765     0.07600   0.01940   0.04700   0.00000   0.01000   0.00000
C1766     0.06200   0.02310   0.03900   0.00000   0.00900   0.00000
C1767     0.08400   0.02250   0.04600   0.00000   0.03100   0.00000
C1768     0.08800   0.02300   0.05200   0.00000  -0.00900   0.00000
N1769     0.02330   0.04710   0.03030  -0.00200  -0.00030   0.00130
N1770     0.02450   0.05650   0.03410  -0.00140   0.00040   0.00230
C1771     0.02400   0.07500   0.03410  -0.00840   0.00570   0.01140
C1772     0.02660   0.09300   0.03870   0.00000   0.00480   0.00300
C1773     0.02540   0.13000   0.04900   0.00200  -0.00310   0.02800
C1774     0.02480   0.15200   0.05000   0.00000  -0.00010   0.01500
N1775     0.02330   0.04710   0.03030  -0.00200   0.00030  -0.00130
N1776     0.02450   0.05650   0.03410  -0.00140  -0.00040  -0.00230
C1777     0.02400   0.07500   0.03410  -0.00840  -0.00570  -0.01140
C1778     0.02660   0.09300   0.03870   0.00000  -0.00480  -0.00300
C1779     0.02540   0.13000   0.04900   0.00200   0.00310  -0.02800
C1780     0.02480   0.15200   0.05000   0.00000   0.00010  -0.01500
N1781     0.04710   0.02330   0.03030   0.00200  -0.00130  -0.00030
N1782     0.05650   0.02450   0.03410   0.00140  -0.00230   0.00040
C1783     0.07500   0.02400   0.03410   0.00840  -0.01140   0.00570
C1784     0.09300   0.02660   0.03870   0.00000  -0.00300   0.00480
C1785     0.13000   0.02540   0.04900  -0.00200  -0.02800  -0.00310
C1786     0.15200   0.02480   0.05000   0.00000  -0.01500  -0.00010
N1787     0.04710   0.02330   0.03030   0.00200   0.00130   0.00030
N1788     0.05650   0.02450   0.03410   0.00140   0.00230  -0.00040
C1789     0.07500   0.02400   0.03410   0.00840   0.01140  -0.00570
C1790     0.09300   0.02660   0.03870   0.00000   0.00300  -0.00480
C1791     0.13000   0.02540   0.04900  -0.00200   0.02800   0.00310
C1792     0.15200   0.02480   0.05000   0.00000   0.01500   0.00010
N1793     0.02330   0.04710   0.03030   0.00200  -0.00030  -0.00130
N1794     0.02450   0.05650   0.03410   0.00140   0.00040  -0.00230
C1795     0.02400   0.07500   0.03410   0.00840   0.00570  -0.01140
C1796     0.02660   0.09300   0.03870   0.00000   0.00480  -0.00300
C1797     0.02540   0.13000   0.04900  -0.00200  -0.00310  -0.02800
C1798     0.02480   0.15200   0.05000   0.00000  -0.00010  -0.01500
N1799     0.02330   0.04710   0.03030   0.00200   0.00030   0.00130
N1800     0.02450   0.05650   0.03410   0.00140  -0.00040   0.00230
C1801     0.02400   0.07500   0.03410   0.00840  -0.00570   0.01140
C1802     0.02660   0.09300   0.03870   0.00000  -0.00480   0.00300
C1803     0.02540   0.13000   0.04900  -0.00200   0.00310   0.02800
C1804     0.02480   0.15200   0.05000   0.00000   0.00010   0.01500
N1805     0.04710   0.02330   0.03030  -0.00200  -0.00130   0.00030
N1806     0.05650   0.02450   0.03410  -0.00140  -0.00230  -0.00040
C1807     0.07500   0.02400   0.03410  -0.00840  -0.01140  -0.00570
C1808     0.09300   0.02660   0.03870   0.00000  -0.00300  -0.00480
C1809     0.13000   0.02540   0.04900   0.00200  -0.02800   0.00310
C1810     0.15200   0.02480   0.05000   0.00000  -0.01500   0.00010
N1811     0.04710   0.02330   0.03030  -0.00200   0.00130  -0.00030
N1812     0.05650   0.02450   0.03410  -0.00140   0.00230   0.00040
C1813     0.07500   0.02400   0.03410  -0.00840   0.01140   0.00570
C1814     0.09300   0.02660   0.03870   0.00000   0.00300   0.00480
C1815     0.13000   0.02540   0.04900   0.00200   0.02800  -0.00310
C1816     0.15200   0.02480   0.05000   0.00000   0.01500  -0.00010
Co1817    0.02490   0.02490   0.02650  -0.00028  -0.00071   0.00071
Co1818    0.02490   0.02490   0.02650  -0.00028   0.00071  -0.00071
Co1819    0.02490   0.02490   0.02650   0.00028  -0.00071  -0.00071
Co1820    0.02490   0.02490   0.02650   0.00028   0.00071   0.00071
C1821     0.01940   0.07600   0.04700   0.00000   0.00000   0.01000
C1822     0.02310   0.06200   0.03900   0.00000   0.00000   0.00900
C1823     0.02250   0.08400   0.04600   0.00000   0.00000   0.03100
C1824     0.02300   0.08800   0.05200   0.00000   0.00000  -0.00900
C1825     0.01940   0.07600   0.04700   0.00000   0.00000  -0.01000
C1826     0.02310   0.06200   0.03900   0.00000   0.00000  -0.00900
C1827     0.02250   0.08400   0.04600   0.00000   0.00000  -0.03100
C1828     0.02300   0.08800   0.05200   0.00000   0.00000   0.00900
C1829     0.07600   0.01940   0.04700   0.00000  -0.01000   0.00000
C1830     0.06200   0.02310   0.03900   0.00000  -0.00900   0.00000
C1831     0.08400   0.02250   0.04600   0.00000  -0.03100   0.00000
C1832     0.08800   0.02300   0.05200   0.00000   0.00900   0.00000
C1833     0.07600   0.01940   0.04700   0.00000   0.01000   0.00000
C1834     0.06200   0.02310   0.03900   0.00000   0.00900   0.00000
C1835     0.08400   0.02250   0.04600   0.00000   0.03100   0.00000
C1836     0.08800   0.02300   0.05200   0.00000  -0.00900   0.00000
N1837     0.02330   0.04710   0.03030  -0.00200  -0.00030   0.00130
N1838     0.02450   0.05650   0.03410  -0.00140   0.00040   0.00230
C1839     0.02400   0.07500   0.03410  -0.00840   0.00570   0.01140
C1840     0.02660   0.09300   0.03870   0.00000   0.00480   0.00300
C1841     0.02540   0.13000   0.04900   0.00200  -0.00310   0.02800
C1842     0.02480   0.15200   0.05000   0.00000  -0.00010   0.01500
N1843     0.02330   0.04710   0.03030  -0.00200   0.00030  -0.00130
N1844     0.02450   0.05650   0.03410  -0.00140  -0.00040  -0.00230
C1845     0.02400   0.07500   0.03410  -0.00840  -0.00570  -0.01140
C1846     0.02660   0.09300   0.03870   0.00000  -0.00480  -0.00300
C1847     0.02540   0.13000   0.04900   0.00200   0.00310  -0.02800
C1848     0.02480   0.15200   0.05000   0.00000   0.00010  -0.01500
N1849     0.04710   0.02330   0.03030   0.00200  -0.00130  -0.00030
N1850     0.05650   0.02450   0.03410   0.00140  -0.00230   0.00040
C1851     0.07500   0.02400   0.03410   0.00840  -0.01140   0.00570
C1852     0.09300   0.02660   0.03870   0.00000  -0.00300   0.00480
C1853     0.13000   0.02540   0.04900  -0.00200  -0.02800  -0.00310
C1854     0.15200   0.02480   0.05000   0.00000  -0.01500  -0.00010
N1855     0.04710   0.02330   0.03030   0.00200   0.00130   0.00030
N1856     0.05650   0.02450   0.03410   0.00140   0.00230  -0.00040
C1857     0.07500   0.02400   0.03410   0.00840   0.01140  -0.00570
C1858     0.09300   0.02660   0.03870   0.00000   0.00300  -0.00480
C1859     0.13000   0.02540   0.04900  -0.00200   0.02800   0.00310
C1860     0.15200   0.02480   0.05000   0.00000   0.01500   0.00010
N1861     0.02330   0.04710   0.03030   0.00200  -0.00030  -0.00130
N1862     0.02450   0.05650   0.03410   0.00140   0.00040  -0.00230
C1863     0.02400   0.07500   0.03410   0.00840   0.00570  -0.01140
C1864     0.02660   0.09300   0.03870   0.00000   0.00480  -0.00300
C1865     0.02540   0.13000   0.04900  -0.00200  -0.00310  -0.02800
C1866     0.02480   0.15200   0.05000   0.00000  -0.00010  -0.01500
N1867     0.02330   0.04710   0.03030   0.00200   0.00030   0.00130
N1868     0.02450   0.05650   0.03410   0.00140  -0.00040   0.00230
C1869     0.02400   0.07500   0.03410   0.00840  -0.00570   0.01140
C1870     0.02660   0.09300   0.03870   0.00000  -0.00480   0.00300
C1871     0.02540   0.13000   0.04900  -0.00200   0.00310   0.02800
C1872     0.02480   0.15200   0.05000   0.00000   0.00010   0.01500
N1873     0.04710   0.02330   0.03030  -0.00200  -0.00130   0.00030
N1874     0.05650   0.02450   0.03410  -0.00140  -0.00230  -0.00040
C1875     0.07500   0.02400   0.03410  -0.00840  -0.01140  -0.00570
C1876     0.09300   0.02660   0.03870   0.00000  -0.00300  -0.00480
C1877     0.13000   0.02540   0.04900   0.00200  -0.02800   0.00310
C1878     0.15200   0.02480   0.05000   0.00000  -0.01500   0.00010
N1879     0.04710   0.02330   0.03030  -0.00200   0.00130  -0.00030
N1880     0.05650   0.02450   0.03410  -0.00140   0.00230   0.00040
C1881     0.07500   0.02400   0.03410  -0.00840   0.01140   0.00570
C1882     0.09300   0.02660   0.03870   0.00000   0.00300   0.00480
C1883     0.13000   0.02540   0.04900   0.00200   0.02800  -0.00310
C1884     0.15200   0.02480   0.05000   0.00000   0.01500  -0.00010
Co1885    0.02490   0.02490   0.02650  -0.00028  -0.00071   0.00071
Co1886    0.02490   0.02490   0.02650  -0.00028   0.00071  -0.00071
Co1887    0.02490   0.02490   0.02650   0.00028  -0.00071  -0.00071
Co1888    0.02490   0.02490   0.02650   0.00028   0.00071   0.00071
C1889     0.01940   0.07600   0.04700   0.00000   0.00000   0.01000
C1890     0.02310   0.06200   0.03900   0.00000   0.00000   0.00900
C1891     0.02250   0.08400   0.04600   0.00000   0.00000   0.03100
C1892     0.02300   0.08800   0.05200   0.00000   0.00000  -0.00900
C1893     0.01940   0.07600   0.04700   0.00000   0.00000  -0.01000
C1894     0.02310   0.06200   0.03900   0.00000   0.00000  -0.00900
C1895     0.02250   0.08400   0.04600   0.00000   0.00000  -0.03100
C1896     0.02300   0.08800   0.05200   0.00000   0.00000   0.00900
C1897     0.07600   0.01940   0.04700   0.00000  -0.01000   0.00000
C1898     0.06200   0.02310   0.03900   0.00000  -0.00900   0.00000
C1899     0.08400   0.02250   0.04600   0.00000  -0.03100   0.00000
C1900     0.08800   0.02300   0.05200   0.00000   0.00900   0.00000
C1901     0.07600   0.01940   0.04700   0.00000   0.01000   0.00000
C1902     0.06200   0.02310   0.03900   0.00000   0.00900   0.00000
C1903     0.08400   0.02250   0.04600   0.00000   0.03100   0.00000
C1904     0.08800   0.02300   0.05200   0.00000  -0.00900   0.00000
N1905     0.02330   0.04710   0.03030  -0.00200  -0.00030   0.00130
N1906     0.02450   0.05650   0.03410  -0.00140   0.00040   0.00230
C1907     0.02400   0.07500   0.03410  -0.00840   0.00570   0.01140
C1908     0.02660   0.09300   0.03870   0.00000   0.00480   0.00300
C1909     0.02540   0.13000   0.04900   0.00200  -0.00310   0.02800
C1910     0.02480   0.15200   0.05000   0.00000  -0.00010   0.01500
N1911     0.02330   0.04710   0.03030  -0.00200   0.00030  -0.00130
N1912     0.02450   0.05650   0.03410  -0.00140  -0.00040  -0.00230
C1913     0.02400   0.07500   0.03410  -0.00840  -0.00570  -0.01140
C1914     0.02660   0.09300   0.03870   0.00000  -0.00480  -0.00300
C1915     0.02540   0.13000   0.04900   0.00200   0.00310  -0.02800
C1916     0.02480   0.15200   0.05000   0.00000   0.00010  -0.01500
N1917     0.04710   0.02330   0.03030   0.00200  -0.00130  -0.00030
N1918     0.05650   0.02450   0.03410   0.00140  -0.00230   0.00040
C1919     0.07500   0.02400   0.03410   0.00840  -0.01140   0.00570
C1920     0.09300   0.02660   0.03870   0.00000  -0.00300   0.00480
C1921     0.13000   0.02540   0.04900  -0.00200  -0.02800  -0.00310
C1922     0.15200   0.02480   0.05000   0.00000  -0.01500  -0.00010
N1923     0.04710   0.02330   0.03030   0.00200   0.00130   0.00030
N1924     0.05650   0.02450   0.03410   0.00140   0.00230  -0.00040
C1925     0.07500   0.02400   0.03410   0.00840   0.01140  -0.00570
C1926     0.09300   0.02660   0.03870   0.00000   0.00300  -0.00480
C1927     0.13000   0.02540   0.04900  -0.00200   0.02800   0.00310
C1928     0.15200   0.02480   0.05000   0.00000   0.01500   0.00010
N1929     0.02330   0.04710   0.03030   0.00200  -0.00030  -0.00130
N1930     0.02450   0.05650   0.03410   0.00140   0.00040  -0.00230
C1931     0.02400   0.07500   0.03410   0.00840   0.00570  -0.01140
C1932     0.02660   0.09300   0.03870   0.00000   0.00480  -0.00300
C1933     0.02540   0.13000   0.04900  -0.00200  -0.00310  -0.02800
C1934     0.02480   0.15200   0.05000   0.00000  -0.00010  -0.01500
N1935     0.02330   0.04710   0.03030   0.00200   0.00030   0.00130
N1936     0.02450   0.05650   0.03410   0.00140  -0.00040   0.00230
C1937     0.02400   0.07500   0.03410   0.00840  -0.00570   0.01140
C1938     0.02660   0.09300   0.03870   0.00000  -0.00480   0.00300
C1939     0.02540   0.13000   0.04900  -0.00200   0.00310   0.02800
C1940     0.02480   0.15200   0.05000   0.00000   0.00010   0.01500
N1941     0.04710   0.02330   0.03030  -0.00200  -0.00130   0.00030
N1942     0.05650   0.02450   0.03410  -0.00140  -0.00230  -0.00040
C1943     0.07500   0.02400   0.03410  -0.00840  -0.01140  -0.00570
C1944     0.09300   0.02660   0.03870   0.00000  -0.00300  -0.00480
C1945     0.13000   0.02540   0.04900   0.00200  -0.02800   0.00310
C1946     0.15200   0.02480   0.05000   0.00000  -0.01500   0.00010
N1947     0.04710   0.02330   0.03030  -0.00200   0.00130  -0.00030
N1948     0.05650   0.02450   0.03410  -0.00140   0.00230   0.00040
C1949     0.07500   0.02400   0.03410  -0.00840   0.01140   0.00570
C1950     0.09300   0.02660   0.03870   0.00000   0.00300   0.00480
C1951     0.13000   0.02540   0.04900   0.00200   0.02800  -0.00310
C1952     0.15200   0.02480   0.05000   0.00000   0.01500  -0.00010
Co1953    0.02490   0.02490   0.02650  -0.00028  -0.00071   0.00071
Co1954    0.02490   0.02490   0.02650  -0.00028   0.00071  -0.00071
Co1955    0.02490   0.02490   0.02650   0.00028  -0.00071  -0.00071
Co1956    0.02490   0.02490   0.02650   0.00028   0.00071   0.00071
C1957     0.01940   0.07600   0.04700   0.00000   0.00000   0.01000
C1958     0.02310   0.06200   0.03900   0.00000   0.00000   0.00900
C1959     0.02250   0.08400   0.04600   0.00000   0.00000   0.03100
C1960     0.02300   0.08800   0.05200   0.00000   0.00000  -0.00900
C1961     0.01940   0.07600   0.04700   0.00000   0.00000  -0.01000
C1962     0.02310   0.06200   0.03900   0.00000   0.00000  -0.00900
C1963     0.02250   0.08400   0.04600   0.00000   0.00000  -0.03100
C1964     0.02300   0.08800   0.05200   0.00000   0.00000   0.00900
C1965     0.07600   0.01940   0.04700   0.00000  -0.01000   0.00000
C1966     0.06200   0.02310   0.03900   0.00000  -0.00900   0.00000
C1967     0.08400   0.02250   0.04600   0.00000  -0.03100   0.00000
C1968     0.08800   0.02300   0.05200   0.00000   0.00900   0.00000
C1969     0.07600   0.01940   0.04700   0.00000   0.01000   0.00000
C1970     0.06200   0.02310   0.03900   0.00000   0.00900   0.00000
C1971     0.08400   0.02250   0.04600   0.00000   0.03100   0.00000
C1972     0.08800   0.02300   0.05200   0.00000  -0.00900   0.00000
N1973     0.02330   0.04710   0.03030  -0.00200  -0.00030   0.00130
N1974     0.02450   0.05650   0.03410  -0.00140   0.00040   0.00230
C1975     0.02400   0.07500   0.03410  -0.00840   0.00570   0.01140
C1976     0.02660   0.09300   0.03870   0.00000   0.00480   0.00300
C1977     0.02540   0.13000   0.04900   0.00200  -0.00310   0.02800
C1978     0.02480   0.15200   0.05000   0.00000  -0.00010   0.01500
N1979     0.02330   0.04710   0.03030  -0.00200   0.00030  -0.00130
N1980     0.02450   0.05650   0.03410  -0.00140  -0.00040  -0.00230
C1981     0.02400   0.07500   0.03410  -0.00840  -0.00570  -0.01140
C1982     0.02660   0.09300   0.03870   0.00000  -0.00480  -0.00300
C1983     0.02540   0.13000   0.04900   0.00200   0.00310  -0.02800
C1984     0.02480   0.15200   0.05000   0.00000   0.00010  -0.01500
N1985     0.04710   0.02330   0.03030   0.00200  -0.00130  -0.00030
N1986     0.05650   0.02450   0.03410   0.00140  -0.00230   0.00040
C1987     0.07500   0.02400   0.03410   0.00840  -0.01140   0.00570
C1988     0.09300   0.02660   0.03870   0.00000  -0.00300   0.00480
C1989     0.13000   0.02540   0.04900  -0.00200  -0.02800  -0.00310
C1990     0.15200   0.02480   0.05000   0.00000  -0.01500  -0.00010
N1991     0.04710   0.02330   0.03030   0.00200   0.00130   0.00030
N1992     0.05650   0.02450   0.03410   0.00140   0.00230  -0.00040
C1993     0.07500   0.02400   0.03410   0.00840   0.01140  -0.00570
C1994     0.09300   0.02660   0.03870   0.00000   0.00300  -0.00480
C1995     0.13000   0.02540   0.04900  -0.00200   0.02800   0.00310
C1996     0.15200   0.02480   0.05000   0.00000   0.01500   0.00010
N1997     0.02330   0.04710   0.03030   0.00200  -0.00030  -0.00130
N1998     0.02450   0.05650   0.03410   0.00140   0.00040  -0.00230
C1999     0.02400   0.07500   0.03410   0.00840   0.00570  -0.01140
C2000     0.02660   0.09300   0.03870   0.00000   0.00480  -0.00300
C2001     0.02540   0.13000   0.04900  -0.00200  -0.00310  -0.02800
C2002     0.02480   0.15200   0.05000   0.00000  -0.00010  -0.01500
N2003     0.02330   0.04710   0.03030   0.00200   0.00030   0.00130
N2004     0.02450   0.05650   0.03410   0.00140  -0.00040   0.00230
C2005     0.02400   0.07500   0.03410   0.00840  -0.00570   0.01140
C2006     0.02660   0.09300   0.03870   0.00000  -0.00480   0.00300
C2007     0.02540   0.13000   0.04900  -0.00200   0.00310   0.02800
C2008     0.02480   0.15200   0.05000   0.00000   0.00010   0.01500
N2009     0.04710   0.02330   0.03030  -0.00200  -0.00130   0.00030
N2010     0.05650   0.02450   0.03410  -0.00140  -0.00230  -0.00040
C2011     0.07500   0.02400   0.03410  -0.00840  -0.01140  -0.00570
C2012     0.09300   0.02660   0.03870   0.00000  -0.00300  -0.00480
C2013     0.13000   0.02540   0.04900   0.00200  -0.02800   0.00310
C2014     0.15200   0.02480   0.05000   0.00000  -0.01500   0.00010
N2015     0.04710   0.02330   0.03030  -0.00200   0.00130  -0.00030
N2016     0.05650   0.02450   0.03410  -0.00140   0.00230   0.00040
C2017     0.07500   0.02400   0.03410  -0.00840   0.01140   0.00570
C2018     0.09300   0.02660   0.03870   0.00000   0.00300   0.00480
C2019     0.13000   0.02540   0.04900   0.00200   0.02800  -0.00310
C2020     0.15200   0.02480   0.05000   0.00000   0.01500  -0.00010
Co2021    0.02490   0.02490   0.02650  -0.00028  -0.00071   0.00071
Co2022    0.02490   0.02490   0.02650  -0.00028   0.00071  -0.00071
Co2023    0.02490   0.02490   0.02650   0.00028  -0.00071  -0.00071
Co2024    0.02490   0.02490   0.02650   0.00028   0.00071   0.00071
C2025     0.01940   0.07600   0.04700   0.00000   0.00000   0.01000
C2026     0.02310   0.06200   0.03900   0.00000   0.00000   0.00900
C2027     0.02250   0.08400   0.04600   0.00000   0.00000   0.03100
C2028     0.02300   0.08800   0.05200   0.00000   0.00000  -0.00900
C2029     0.01940   0.07600   0.04700   0.00000   0.00000  -0.01000
C2030     0.02310   0.06200   0.03900   0.00000   0.00000  -0.00900
C2031     0.02250   0.08400   0.04600   0.00000   0.00000  -0.03100
C2032     0.02300   0.08800   0.05200   0.00000   0.00000   0.00900
C2033     0.07600   0.01940   0.04700   0.00000  -0.01000   0.00000
C2034     0.06200   0.02310   0.03900   0.00000  -0.00900   0.00000
C2035     0.08400   0.02250   0.04600   0.00000  -0.03100   0.00000
C2036     0.08800   0.02300   0.05200   0.00000   0.00900   0.00000
C2037     0.07600   0.01940   0.04700   0.00000   0.01000   0.00000
C2038     0.06200   0.02310   0.03900   0.00000   0.00900   0.00000
C2039     0.08400   0.02250   0.04600   0.00000   0.03100   0.00000
C2040     0.08800   0.02300   0.05200   0.00000  -0.00900   0.00000
N2041     0.02330   0.04710   0.03030  -0.00200  -0.00030   0.00130
N2042     0.02450   0.05650   0.03410  -0.00140   0.00040   0.00230
C2043     0.02400   0.07500   0.03410  -0.00840   0.00570   0.01140
C2044     0.02660   0.09300   0.03870   0.00000   0.00480   0.00300
C2045     0.02540   0.13000   0.04900   0.00200  -0.00310   0.02800
C2046     0.02480   0.15200   0.05000   0.00000  -0.00010   0.01500
N2047     0.02330   0.04710   0.03030  -0.00200   0.00030  -0.00130
N2048     0.02450   0.05650   0.03410  -0.00140  -0.00040  -0.00230
C2049     0.02400   0.07500   0.03410  -0.00840  -0.00570  -0.01140
C2050     0.02660   0.09300   0.03870   0.00000  -0.00480  -0.00300
C2051     0.02540   0.13000   0.04900   0.00200   0.00310  -0.02800
C2052     0.02480   0.15200   0.05000   0.00000   0.00010  -0.01500
N2053     0.04710   0.02330   0.03030   0.00200  -0.00130  -0.00030
N2054     0.05650   0.02450   0.03410   0.00140  -0.00230   0.00040
C2055     0.07500   0.02400   0.03410   0.00840  -0.01140   0.00570
C2056     0.09300   0.02660   0.03870   0.00000  -0.00300   0.00480
C2057     0.13000   0.02540   0.04900  -0.00200  -0.02800  -0.00310
C2058     0.15200   0.02480   0.05000   0.00000  -0.01500  -0.00010
N2059     0.04710   0.02330   0.03030   0.00200   0.00130   0.00030
N2060     0.05650   0.02450   0.03410   0.00140   0.00230  -0.00040
C2061     0.07500   0.02400   0.03410   0.00840   0.01140  -0.00570
C2062     0.09300   0.02660   0.03870   0.00000   0.00300  -0.00480
C2063     0.13000   0.02540   0.04900  -0.00200   0.02800   0.00310
C2064     0.15200   0.02480   0.05000   0.00000   0.01500   0.00010
N2065     0.02330   0.04710   0.03030   0.00200  -0.00030  -0.00130
N2066     0.02450   0.05650   0.03410   0.00140   0.00040  -0.00230
C2067     0.02400   0.07500   0.03410   0.00840   0.00570  -0.01140
C2068     0.02660   0.09300   0.03870   0.00000   0.00480  -0.00300
C2069     0.02540   0.13000   0.04900  -0.00200  -0.00310  -0.02800
C2070     0.02480   0.15200   0.05000   0.00000  -0.00010  -0.01500
N2071     0.02330   0.04710   0.03030   0.00200   0.00030   0.00130
N2072     0.02450   0.05650   0.03410   0.00140  -0.00040   0.00230
C2073     0.02400   0.07500   0.03410   0.00840  -0.00570   0.01140
C2074     0.02660   0.09300   0.03870   0.00000  -0.00480   0.00300
C2075     0.02540   0.13000   0.04900  -0.00200   0.00310   0.02800
C2076     0.02480   0.15200   0.05000   0.00000   0.00010   0.01500
N2077     0.04710   0.02330   0.03030  -0.00200  -0.00130   0.00030
N2078     0.05650   0.02450   0.03410  -0.00140  -0.00230  -0.00040
C2079     0.07500   0.02400   0.03410  -0.00840  -0.01140  -0.00570
C2080     0.09300   0.02660   0.03870   0.00000  -0.00300  -0.00480
C2081     0.13000   0.02540   0.04900   0.00200  -0.02800   0.00310
C2082     0.15200   0.02480   0.05000   0.00000  -0.01500   0.00010
N2083     0.04710   0.02330   0.03030  -0.00200   0.00130  -0.00030
N2084     0.05650   0.02450   0.03410  -0.00140   0.00230   0.00040
C2085     0.07500   0.02400   0.03410  -0.00840   0.01140   0.00570
C2086     0.09300   0.02660   0.03870   0.00000   0.00300   0.00480
C2087     0.13000   0.02540   0.04900   0.00200   0.02800  -0.00310
C2088     0.15200   0.02480   0.05000   0.00000   0.01500  -0.00010
Co2089    0.02490   0.02490   0.02650  -0.00028  -0.00071   0.00071
Co2090    0.02490   0.02490   0.02650  -0.00028   0.00071  -0.00071
Co2091    0.02490   0.02490   0.02650   0.00028  -0.00071  -0.00071
Co2092    0.02490   0.02490   0.02650   0.00028   0.00071   0.00071
C2093     0.01940   0.07600   0.04700   0.00000   0.00000   0.01000
C2094     0.02310   0.06200   0.03900   0.00000   0.00000   0.00900
C2095     0.02250   0.08400   0.04600   0.00000   0.00000   0.03100
C2096     0.02300   0.08800   0.05200   0.00000   0.00000  -0.00900
C2097     0.01940   0.07600   0.04700   0.00000   0.00000  -0.01000
C2098     0.02310   0.06200   0.03900   0.00000   0.00000  -0.00900
C2099     0.02250   0.08400   0.04600   0.00000   0.00000  -0.03100
C2100     0.02300   0.08800   0.05200   0.00000   0.00000   0.00900
C2101     0.07600   0.01940   0.04700   0.00000  -0.01000   0.00000
C2102     0.06200   0.02310   0.03900   0.00000  -0.00900   0.00000
C2103     0.08400   0.02250   0.04600   0.00000  -0.03100   0.00000
C2104     0.08800   0.02300   0.05200   0.00000   0.00900   0.00000
C2105     0.07600   0.01940   0.04700   0.00000   0.01000   0.00000
C2106     0.06200   0.02310   0.03900   0.00000   0.00900   0.00000
C2107     0.08400   0.02250   0.04600   0.00000   0.03100   0.00000
C2108     0.08800   0.02300   0.05200   0.00000  -0.00900   0.00000
N2109     0.02330   0.04710   0.03030  -0.00200  -0.00030   0.00130
N2110     0.02450   0.05650   0.03410  -0.00140   0.00040   0.00230
C2111     0.02400   0.07500   0.03410  -0.00840   0.00570   0.01140
C2112     0.02660   0.09300   0.03870   0.00000   0.00480   0.00300
C2113     0.02540   0.13000   0.04900   0.00200  -0.00310   0.02800
C2114     0.02480   0.15200   0.05000   0.00000  -0.00010   0.01500
N2115     0.02330   0.04710   0.03030  -0.00200   0.00030  -0.00130
N2116     0.02450   0.05650   0.03410  -0.00140  -0.00040  -0.00230
C2117     0.02400   0.07500   0.03410  -0.00840  -0.00570  -0.01140
C2118     0.02660   0.09300   0.03870   0.00000  -0.00480  -0.00300
C2119     0.02540   0.13000   0.04900   0.00200   0.00310  -0.02800
C2120     0.02480   0.15200   0.05000   0.00000   0.00010  -0.01500
N2121     0.04710   0.02330   0.03030   0.00200  -0.00130  -0.00030
N2122     0.05650   0.02450   0.03410   0.00140  -0.00230   0.00040
C2123     0.07500   0.02400   0.03410   0.00840  -0.01140   0.00570
C2124     0.09300   0.02660   0.03870   0.00000  -0.00300   0.00480
C2125     0.13000   0.02540   0.04900  -0.00200  -0.02800  -0.00310
C2126     0.15200   0.02480   0.05000   0.00000  -0.01500  -0.00010
N2127     0.04710   0.02330   0.03030   0.00200   0.00130   0.00030
N2128     0.05650   0.02450   0.03410   0.00140   0.00230  -0.00040
C2129     0.07500   0.02400   0.03410   0.00840   0.01140  -0.00570
C2130     0.09300   0.02660   0.03870   0.00000   0.00300  -0.00480
C2131     0.13000   0.02540   0.04900  -0.00200   0.02800   0.00310
C2132     0.15200   0.02480   0.05000   0.00000   0.01500   0.00010
N2133     0.02330   0.04710   0.03030   0.00200  -0.00030  -0.00130
N2134     0.02450   0.05650   0.03410   0.00140   0.00040  -0.00230
C2135     0.02400   0.07500   0.03410   0.00840   0.00570  -0.01140
C2136     0.02660   0.09300   0.03870   0.00000   0.00480  -0.00300
C2137     0.02540   0.13000   0.04900  -0.00200  -0.00310  -0.02800
C2138     0.02480   0.15200   0.05000   0.00000  -0.00010  -0.01500
N2139     0.02330   0.04710   0.03030   0.00200   0.00030   0.00130
N2140     0.02450   0.05650   0.03410   0.00140  -0.00040   0.00230
C2141     0.02400   0.07500   0.03410   0.00840  -0.00570   0.01140
C2142     0.02660   0.09300   0.03870   0.00000  -0.00480   0.00300
C2143     0.02540   0.13000   0.04900  -0.00200   0.00310   0.02800
C2144     0.02480   0.15200   0.05000   0.00000   0.00010   0.01500
N2145     0.04710   0.02330   0.03030  -0.00200  -0.00130   0.00030
N2146     0.05650   0.02450   0.03410  -0.00140  -0.00230  -0.00040
C2147     0.07500   0.02400   0.03410  -0.00840  -0.01140  -0.00570
C2148     0.09300   0.02660   0.03870   0.00000  -0.00300  -0.00480
C2149     0.13000   0.02540   0.04900   0.00200  -0.02800   0.00310
C2150     0.15200   0.02480   0.05000   0.00000  -0.01500   0.00010
N2151     0.04710   0.02330   0.03030  -0.00200   0.00130  -0.00030
N2152     0.05650   0.02450   0.03410  -0.00140   0.00230   0.00040
C2153     0.07500   0.02400   0.03410  -0.00840   0.01140   0.00570
C2154     0.09300   0.02660   0.03870   0.00000   0.00300   0.00480
C2155     0.13000   0.02540   0.04900   0.00200   0.02800  -0.00310
C2156     0.15200   0.02480   0.05000   0.00000   0.01500  -0.00010
Co2157    0.02490   0.02490   0.02650  -0.00028  -0.00071   0.00071
Co2158    0.02490   0.02490   0.02650  -0.00028   0.00071  -0.00071
Co2159    0.02490   0.02490   0.02650   0.00028  -0.00071  -0.00071
Co2160    0.02490   0.02490   0.02650   0.00028   0.00071   0.00071
C2161     0.01940   0.07600   0.04700   0.00000   0.00000   0.01000
C2162     0.02310   0.06200   0.03900   0.00000   0.00000   0.00900
C2163     0.02250   0.08400   0.04600   0.00000   0.00000   0.03100
C2164     0.02300   0.08800   0.05200   0.00000   0.00000  -0.00900
C2165     0.01940   0.07600   0.04700   0.00000   0.00000  -0.01000
C2166     0.02310   0.06200   0.03900   0.00000   0.00000  -0.00900
C2167     0.02250   0.08400   0.04600   0.00000   0.00000  -0.03100
C2168     0.02300   0.08800   0.05200   0.00000   0.00000   0.00900
C2169     0.07600   0.01940   0.04700   0.00000  -0.01000   0.00000
C2170     0.06200   0.02310   0.03900   0.00000  -0.00900   0.00000
C2171     0.08400   0.02250   0.04600   0.00000  -0.03100   0.00000
C2172     0.08800   0.02300   0.05200   0.00000   0.00900   0.00000
C2173     0.07600   0.01940   0.04700   0.00000   0.01000   0.00000
C2174     0.06200   0.02310   0.03900   0.00000   0.00900   0.00000
C2175     0.08400   0.02250   0.04600   0.00000   0.03100   0.00000
C2176     0.08800   0.02300   0.05200   0.00000  -0.00900   0.00000
N2177     0.02330   0.04710   0.03030  -0.00200  -0.00030   0.00130
N2178     0.02450   0.05650   0.03410  -0.00140   0.00040   0.00230
C2179     0.02400   0.07500   0.03410  -0.00840   0.00570   0.01140
C2180     0.02660   0.09300   0.03870   0.00000   0.00480   0.00300
C2181     0.02540   0.13000   0.04900   0.00200  -0.00310   0.02800
C2182     0.02480   0.15200   0.05000   0.00000  -0.00010   0.01500
N2183     0.02330   0.04710   0.03030  -0.00200   0.00030  -0.00130
N2184     0.02450   0.05650   0.03410  -0.00140  -0.00040  -0.00230
C2185     0.02400   0.07500   0.03410  -0.00840  -0.00570  -0.01140
C2186     0.02660   0.09300   0.03870   0.00000  -0.00480  -0.00300
C2187     0.02540   0.13000   0.04900   0.00200   0.00310  -0.02800
C2188     0.02480   0.15200   0.05000   0.00000   0.00010  -0.01500
N2189     0.04710   0.02330   0.03030   0.00200  -0.00130  -0.00030
N2190     0.05650   0.02450   0.03410   0.00140  -0.00230   0.00040
C2191     0.07500   0.02400   0.03410   0.00840  -0.01140   0.00570
C2192     0.09300   0.02660   0.03870   0.00000  -0.00300   0.00480
C2193     0.13000   0.02540   0.04900  -0.00200  -0.02800  -0.00310
C2194     0.15200   0.02480   0.05000   0.00000  -0.01500  -0.00010
N2195     0.04710   0.02330   0.03030   0.00200   0.00130   0.00030
N2196     0.05650   0.02450   0.03410   0.00140   0.00230  -0.00040
C2197     0.07500   0.02400   0.03410   0.00840   0.01140  -0.00570
C2198     0.09300   0.02660   0.03870   0.00000   0.00300  -0.00480
C2199     0.13000   0.02540   0.04900  -0.00200   0.02800   0.00310
C2200     0.15200   0.02480   0.05000   0.00000   0.01500   0.00010
N2201     0.02330   0.04710   0.03030   0.00200  -0.00030  -0.00130
N2202     0.02450   0.05650   0.03410   0.00140   0.00040  -0.00230
C2203     0.02400   0.07500   0.03410   0.00840   0.00570  -0.01140
C2204     0.02660   0.09300   0.03870   0.00000   0.00480  -0.00300
C2205     0.02540   0.13000   0.04900  -0.00200  -0.00310  -0.02800
C2206     0.02480   0.15200   0.05000   0.00000  -0.00010  -0.01500
N2207     0.02330   0.04710   0.03030   0.00200   0.00030   0.00130
N2208     0.02450   0.05650   0.03410   0.00140  -0.00040   0.00230
C2209     0.02400   0.07500   0.03410   0.00840  -0.00570   0.01140
C2210     0.02660   0.09300   0.03870   0.00000  -0.00480   0.00300
C2211     0.02540   0.13000   0.04900  -0.00200   0.00310   0.02800
C2212     0.02480   0.15200   0.05000   0.00000   0.00010   0.01500
N2213     0.04710   0.02330   0.03030  -0.00200  -0.00130   0.00030
N2214     0.05650   0.02450   0.03410  -0.00140  -0.00230  -0.00040
C2215     0.07500   0.02400   0.03410  -0.00840  -0.01140  -0.00570
C2216     0.09300   0.02660   0.03870   0.00000  -0.00300  -0.00480
C2217     0.13000   0.02540   0.04900   0.00200  -0.02800   0.00310
C2218     0.15200   0.02480   0.05000   0.00000  -0.01500   0.00010
N2219     0.04710   0.02330   0.03030  -0.00200   0.00130  -0.00030
N2220     0.05650   0.02450   0.03410  -0.00140   0.00230   0.00040
C2221     0.07500   0.02400   0.03410  -0.00840   0.01140   0.00570
C2222     0.09300   0.02660   0.03870   0.00000   0.00300   0.00480
C2223     0.13000   0.02540   0.04900   0.00200   0.02800  -0.00310
C2224     0.15200   0.02480   0.05000   0.00000   0.01500  -0.00010
Co2225    0.02490   0.02490   0.02650  -0.00028  -0.00071   0.00071
Co2226    0.02490   0.02490   0.02650  -0.00028   0.00071  -0.00071
Co2227    0.02490   0.02490   0.02650   0.00028  -0.00071  -0.00071
Co2228    0.02490   0.02490   0.02650   0.00028   0.00071   0.00071
C2229     0.01940   0.07600   0.04700   0.00000   0.00000   0.01000
C2230     0.02310   0.06200   0.03900   0.00000   0.00000   0.00900
C2231     0.02250   0.08400   0.04600   0.00000   0.00000   0.03100
C2232     0.02300   0.08800   0.05200   0.00000   0.00000  -0.00900
C2233     0.01940   0.07600   0.04700   0.00000   0.00000  -0.01000
C2234     0.02310   0.06200   0.03900   0.00000   0.00000  -0.00900
C2235     0.02250   0.08400   0.04600   0.00000   0.00000  -0.03100
C2236     0.02300   0.08800   0.05200   0.00000   0.00000   0.00900
C2237     0.07600   0.01940   0.04700   0.00000  -0.01000   0.00000
C2238     0.06200   0.02310   0.03900   0.00000  -0.00900   0.00000
C2239     0.08400   0.02250   0.04600   0.00000  -0.03100   0.00000
C2240     0.08800   0.02300   0.05200   0.00000   0.00900   0.00000
C2241     0.07600   0.01940   0.04700   0.00000   0.01000   0.00000
C2242     0.06200   0.02310   0.03900   0.00000   0.00900   0.00000
C2243     0.08400   0.02250   0.04600   0.00000   0.03100   0.00000
C2244     0.08800   0.02300   0.05200   0.00000  -0.00900   0.00000
N2245     0.02330   0.04710   0.03030  -0.00200  -0.00030   0.00130
N2246     0.02450   0.05650   0.03410  -0.00140   0.00040   0.00230
C2247     0.02400   0.07500   0.03410  -0.00840   0.00570   0.01140
C2248     0.02660   0.09300   0.03870   0.00000   0.00480   0.00300
C2249     0.02540   0.13000   0.04900   0.00200  -0.00310   0.02800
C2250     0.02480   0.15200   0.05000   0.00000  -0.00010   0.01500
N2251     0.02330   0.04710   0.03030  -0.00200   0.00030  -0.00130
N2252     0.02450   0.05650   0.03410  -0.00140  -0.00040  -0.00230
C2253     0.02400   0.07500   0.03410  -0.00840  -0.00570  -0.01140
C2254     0.02660   0.09300   0.03870   0.00000  -0.00480  -0.00300
C2255     0.02540   0.13000   0.04900   0.00200   0.00310  -0.02800
C2256     0.02480   0.15200   0.05000   0.00000   0.00010  -0.01500
N2257     0.04710   0.02330   0.03030   0.00200  -0.00130  -0.00030
N2258     0.05650   0.02450   0.03410   0.00140  -0.00230   0.00040
C2259     0.07500   0.02400   0.03410   0.00840  -0.01140   0.00570
C2260     0.09300   0.02660   0.03870   0.00000  -0.00300   0.00480
C2261     0.13000   0.02540   0.04900  -0.00200  -0.02800  -0.00310
C2262     0.15200   0.02480   0.05000   0.00000  -0.01500  -0.00010
N2263     0.04710   0.02330   0.03030   0.00200   0.00130   0.00030
N2264     0.05650   0.02450   0.03410   0.00140   0.00230  -0.00040
C2265     0.07500   0.02400   0.03410   0.00840   0.01140  -0.00570
C2266     0.09300   0.02660   0.03870   0.00000   0.00300  -0.00480
C2267     0.13000   0.02540   0.04900  -0.00200   0.02800   0.00310
C2268     0.15200   0.02480   0.05000   0.00000   0.01500   0.00010
N2269     0.02330   0.04710   0.03030   0.00200  -0.00030  -0.00130
N2270     0.02450   0.05650   0.03410   0.00140   0.00040  -0.00230
C2271     0.02400   0.07500   0.03410   0.00840   0.00570  -0.01140
C2272     0.02660   0.09300   0.03870   0.00000   0.00480  -0.00300
C2273     0.02540   0.13000   0.04900  -0.00200  -0.00310  -0.02800
C2274     0.02480   0.15200   0.05000   0.00000  -0.00010  -0.01500
N2275     0.02330   0.04710   0.03030   0.00200   0.00030   0.00130
N2276     0.02450   0.05650   0.03410   0.00140  -0.00040   0.00230
C2277     0.02400   0.07500   0.03410   0.00840  -0.00570   0.01140
C2278     0.02660   0.09300   0.03870   0.00000  -0.00480   0.00300
C2279     0.02540   0.13000   0.04900  -0.00200   0.00310   0.02800
C2280     0.02480   0.15200   0.05000   0.00000   0.00010   0.01500
N2281     0.04710   0.02330   0.03030  -0.00200  -0.00130   0.00030
N2282     0.05650   0.02450   0.03410  -0.00140  -0.00230  -0.00040
C2283     0.07500   0.02400   0.03410  -0.00840  -0.01140  -0.00570
C2284     0.09300   0.02660   0.03870   0.00000  -0.00300  -0.00480
C2285     0.13000   0.02540   0.04900   0.00200  -0.02800   0.00310
C2286     0.15200   0.02480   0.05000   0.00000  -0.01500   0.00010
N2287     0.04710   0.02330   0.03030  -0.00200   0.00130  -0.00030
N2288     0.05650   0.02450   0.03410  -0.00140   0.00230   0.00040
C2289     0.07500   0.02400   0.03410  -0.00840   0.01140   0.00570
C2290     0.09300   0.02660   0.03870   0.00000   0.00300   0.00480
C2291     0.13000   0.02540   0.04900   0.00200   0.02800  -0.00310
C2292     0.15200   0.02480   0.05000   0.00000   0.01500  -0.00010
Co2293    0.02490   0.02490   0.02650  -0.00028  -0.00071   0.00071
Co2294    0.02490   0.02490   0.02650  -0.00028   0.00071  -0.00071
Co2295    0.02490   0.02490   0.02650   0.00028  -0.00071  -0.00071
Co2296    0.02490   0.02490   0.02650   0.00028   0.00071   0.00071
C2297     0.01940   0.07600   0.04700   0.00000   0.00000   0.01000
C2298     0.02310   0.06200   0.03900   0.00000   0.00000   0.00900
C2299     0.02250   0.08400   0.04600   0.00000   0.00000   0.03100
C2300     0.02300   0.08800   0.05200   0.00000   0.00000  -0.00900
C2301     0.01940   0.07600   0.04700   0.00000   0.00000  -0.01000
C2302     0.02310   0.06200   0.03900   0.00000   0.00000  -0.00900
C2303     0.02250   0.08400   0.04600   0.00000   0.00000  -0.03100
C2304     0.02300   0.08800   0.05200   0.00000   0.00000   0.00900
C2305     0.07600   0.01940   0.04700   0.00000  -0.01000   0.00000
C2306     0.06200   0.02310   0.03900   0.00000  -0.00900   0.00000
C2307     0.08400   0.02250   0.04600   0.00000  -0.03100   0.00000
C2308     0.08800   0.02300   0.05200   0.00000   0.00900   0.00000
C2309     0.07600   0.01940   0.04700   0.00000   0.01000   0.00000
C2310     0.06200   0.02310   0.03900   0.00000   0.00900   0.00000
C2311     0.08400   0.02250   0.04600   0.00000   0.03100   0.00000
C2312     0.08800   0.02300   0.05200   0.00000  -0.00900   0.00000
N2313     0.02330   0.04710   0.03030  -0.00200  -0.00030   0.00130
N2314     0.02450   0.05650   0.03410  -0.00140   0.00040   0.00230
C2315     0.02400   0.07500   0.03410  -0.00840   0.00570   0.01140
C2316     0.02660   0.09300   0.03870   0.00000   0.00480   0.00300
C2317     0.02540   0.13000   0.04900   0.00200  -0.00310   0.02800
C2318     0.02480   0.15200   0.05000   0.00000  -0.00010   0.01500
N2319     0.02330   0.04710   0.03030  -0.00200   0.00030  -0.00130
N2320     0.02450   0.05650   0.03410  -0.00140  -0.00040  -0.00230
C2321     0.02400   0.07500   0.03410  -0.00840  -0.00570  -0.01140
C2322     0.02660   0.09300   0.03870   0.00000  -0.00480  -0.00300
C2323     0.02540   0.13000   0.04900   0.00200   0.00310  -0.02800
C2324     0.02480   0.15200   0.05000   0.00000   0.00010  -0.01500
N2325     0.04710   0.02330   0.03030   0.00200  -0.00130  -0.00030
N2326     0.05650   0.02450   0.03410   0.00140  -0.00230   0.00040
C2327     0.07500   0.02400   0.03410   0.00840  -0.01140   0.00570
C2328     0.09300   0.02660   0.03870   0.00000  -0.00300   0.00480
C2329     0.13000   0.02540   0.04900  -0.00200  -0.02800  -0.00310
C2330     0.15200   0.02480   0.05000   0.00000  -0.01500  -0.00010
N2331     0.04710   0.02330   0.03030   0.00200   0.00130   0.00030
N2332     0.05650   0.02450   0.03410   0.00140   0.00230  -0.00040
C2333     0.07500   0.02400   0.03410   0.00840   0.01140  -0.00570
C2334     0.09300   0.02660   0.03870   0.00000   0.00300  -0.00480
C2335     0.13000   0.02540   0.04900  -0.00200   0.02800   0.00310
C2336     0.15200   0.02480   0.05000   0.00000   0.01500   0.00010
N2337     0.02330   0.04710   0.03030   0.00200  -0.00030  -0.00130
N2338     0.02450   0.05650   0.03410   0.00140   0.00040  -0.00230
C2339     0.02400   0.07500   0.03410   0.00840   0.00570  -0.01140
C2340     0.02660   0.09300   0.03870   0.00000   0.00480  -0.00300
C2341     0.02540   0.13000   0.04900  -0.00200  -0.00310  -0.02800
C2342     0.02480   0.15200   0.05000   0.00000  -0.00010  -0.01500
N2343     0.02330   0.04710   0.03030   0.00200   0.00030   0.00130
N2344     0.02450   0.05650   0.03410   0.00140  -0.00040   0.00230
C2345     0.02400   0.07500   0.03410   0.00840  -0.00570   0.01140
C2346     0.02660   0.09300   0.03870   0.00000  -0.00480   0.00300
C2347     0.02540   0.13000   0.04900  -0.00200   0.00310   0.02800
C2348     0.02480   0.15200   0.05000   0.00000   0.00010   0.01500
N2349     0.04710   0.02330   0.03030  -0.00200  -0.00130   0.00030
N2350     0.05650   0.02450   0.03410  -0.00140  -0.00230  -0.00040
C2351     0.07500   0.02400   0.03410  -0.00840  -0.01140  -0.00570
C2352     0.09300   0.02660   0.03870   0.00000  -0.00300  -0.00480
C2353     0.13000   0.02540   0.04900   0.00200  -0.02800   0.00310
C2354     0.15200   0.02480   0.05000   0.00000  -0.01500   0.00010
N2355     0.04710   0.02330   0.03030  -0.00200   0.00130  -0.00030
N2356     0.05650   0.02450   0.03410  -0.00140   0.00230   0.00040
C2357     0.07500   0.02400   0.03410  -0.00840   0.01140   0.00570
C2358     0.09300   0.02660   0.03870   0.00000   0.00300   0.00480
C2359     0.13000   0.02540   0.04900   0.00200   0.02800  -0.00310
C2360     0.15200   0.02480   0.05000   0.00000   0.01500  -0.00010
Co2361    0.02490   0.02490   0.02650  -0.00028  -0.00071   0.00071
Co2362    0.02490   0.02490   0.02650  -0.00028   0.00071  -0.00071
Co2363    0.02490   0.02490   0.02650   0.00028  -0.00071  -0.00071
Co2364    0.02490   0.02490   0.02650   0.00028   0.00071   0.00071
C2365     0.01940   0.07600   0.04700   0.00000   0.00000   0.01000
C2366     0.02310   0.06200   0.03900   0.00000   0.00000   0.00900
C2367     0.02250   0.08400   0.04600   0.00000   0.00000   0.03100
C2368     0.02300   0.08800   0.05200   0.00000   0.00000  -0.00900
C2369     0.01940   0.07600   0.04700   0.00000   0.00000  -0.01000
C2370     0.02310   0.06200   0.03900   0.00000   0.00000  -0.00900
C2371     0.02250   0.08400   0.04600   0.00000   0.00000  -0.03100
C2372     0.02300   0.08800   0.05200   0.00000   0.00000   0.00900
C2373     0.07600   0.01940   0.04700   0.00000  -0.01000   0.00000
C2374     0.06200   0.02310   0.03900   0.00000  -0.00900   0.00000
C2375     0.08400   0.02250   0.04600   0.00000  -0.03100   0.00000
C2376     0.08800   0.02300   0.05200   0.00000   0.00900   0.00000
C2377     0.07600   0.01940   0.04700   0.00000   0.01000   0.00000
C2378     0.06200   0.02310   0.03900   0.00000   0.00900   0.00000
C2379     0.08400   0.02250   0.04600   0.00000   0.03100   0.00000
C2380     0.08800   0.02300   0.05200   0.00000  -0.00900   0.00000
N2381     0.02330   0.04710   0.03030  -0.00200  -0.00030   0.00130
N2382     0.02450   0.05650   0.03410  -0.00140   0.00040   0.00230
C2383     0.02400   0.07500   0.03410  -0.00840   0.00570   0.01140
C2384     0.02660   0.09300   0.03870   0.00000   0.00480   0.00300
C2385     0.02540   0.13000   0.04900   0.00200  -0.00310   0.02800
C2386     0.02480   0.15200   0.05000   0.00000  -0.00010   0.01500
N2387     0.02330   0.04710   0.03030  -0.00200   0.00030  -0.00130
N2388     0.02450   0.05650   0.03410  -0.00140  -0.00040  -0.00230
C2389     0.02400   0.07500   0.03410  -0.00840  -0.00570  -0.01140
C2390     0.02660   0.09300   0.03870   0.00000  -0.00480  -0.00300
C2391     0.02540   0.13000   0.04900   0.00200   0.00310  -0.02800
C2392     0.02480   0.15200   0.05000   0.00000   0.00010  -0.01500
N2393     0.04710   0.02330   0.03030   0.00200  -0.00130  -0.00030
N2394     0.05650   0.02450   0.03410   0.00140  -0.00230   0.00040
C2395     0.07500   0.02400   0.03410   0.00840  -0.01140   0.00570
C2396     0.09300   0.02660   0.03870   0.00000  -0.00300   0.00480
C2397     0.13000   0.02540   0.04900  -0.00200  -0.02800  -0.00310
C2398     0.15200   0.02480   0.05000   0.00000  -0.01500  -0.00010
N2399     0.04710   0.02330   0.03030   0.00200   0.00130   0.00030
N2400     0.05650   0.02450   0.03410   0.00140   0.00230  -0.00040
C2401     0.07500   0.02400   0.03410   0.00840   0.01140  -0.00570
C2402     0.09300   0.02660   0.03870   0.00000   0.00300  -0.00480
C2403     0.13000   0.02540   0.04900  -0.00200   0.02800   0.00310
C2404     0.15200   0.02480   0.05000   0.00000   0.01500   0.00010
N2405     0.02330   0.04710   0.03030   0.00200  -0.00030  -0.00130
N2406     0.02450   0.05650   0.03410   0.00140   0.00040  -0.00230
C2407     0.02400   0.07500   0.03410   0.00840   0.00570  -0.01140
C2408     0.02660   0.09300   0.03870   0.00000   0.00480  -0.00300
C2409     0.02540   0.13000   0.04900  -0.00200  -0.00310  -0.02800
C2410     0.02480   0.15200   0.05000   0.00000  -0.00010  -0.01500
N2411     0.02330   0.04710   0.03030   0.00200   0.00030   0.00130
N2412     0.02450   0.05650   0.03410   0.00140  -0.00040   0.00230
C2413     0.02400   0.07500   0.03410   0.00840  -0.00570   0.01140
C2414     0.02660   0.09300   0.03870   0.00000  -0.00480   0.00300
C2415     0.02540   0.13000   0.04900  -0.00200   0.00310   0.02800
C2416     0.02480   0.15200   0.05000   0.00000   0.00010   0.01500
N2417     0.04710   0.02330   0.03030  -0.00200  -0.00130   0.00030
N2418     0.05650   0.02450   0.03410  -0.00140  -0.00230  -0.00040
C2419     0.07500   0.02400   0.03410  -0.00840  -0.01140  -0.00570
C2420     0.09300   0.02660   0.03870   0.00000  -0.00300  -0.00480
C2421     0.13000   0.02540   0.04900   0.00200  -0.02800   0.00310
C2422     0.15200   0.02480   0.05000   0.00000  -0.01500   0.00010
N2423     0.04710   0.02330   0.03030  -0.00200   0.00130  -0.00030
N2424     0.05650   0.02450   0.03410  -0.00140   0.00230   0.00040
C2425     0.07500   0.02400   0.03410  -0.00840   0.01140   0.00570
C2426     0.09300   0.02660   0.03870   0.00000   0.00300   0.00480
C2427     0.13000   0.02540   0.04900   0.00200   0.02800  -0.00310
C2428     0.15200   0.02480   0.05000   0.00000   0.01500  -0.00010
Co2429    0.02490   0.02490   0.02650  -0.00028  -0.00071   0.00071
Co2430    0.02490   0.02490   0.02650  -0.00028   0.00071  -0.00071
Co2431    0.02490   0.02490   0.02650   0.00028  -0.00071  -0.00071
Co2432    0.02490   0.02490   0.02650   0.00028   0.00071   0.00071
C2433     0.01940   0.07600   0.04700   0.00000   0.00000   0.01000
C2434     0.02310   0.06200   0.03900   0.00000   0.00000   0.00900
C2435     0.02250   0.08400   0.04600   0.00000   0.00000   0.03100
C2436     0.02300   0.08800   0.05200   0.00000   0.00000  -0.00900
C2437     0.01940   0.07600   0.04700   0.00000   0.00000  -0.01000
C2438     0.02310   0.06200   0.03900   0.00000   0.00000  -0.00900
C2439     0.02250   0.08400   0.04600   0.00000   0.00000  -0.03100
C2440     0.02300   0.08800   0.05200   0.00000   0.00000   0.00900
C2441     0.07600   0.01940   0.04700   0.00000  -0.01000   0.00000
C2442     0.06200   0.02310   0.03900   0.00000  -0.00900   0.00000
C2443     0.08400   0.02250   0.04600   0.00000  -0.03100   0.00000
C2444     0.08800   0.02300   0.05200   0.00000   0.00900   0.00000
C2445     0.07600   0.01940   0.04700   0.00000   0.01000   0.00000
C2446     0.06200   0.02310   0.03900   0.00000   0.00900   0.00000
C2447     0.08400   0.02250   0.04600   0.00000   0.03100   0.00000
C2448     0.08800   0.02300   0.05200   0.00000  -0.00900   0.00000
N2449     0.02330   0.04710   0.03030  -0.00200  -0.00030   0.00130
N2450     0.02450   0.05650   0.03410  -0.00140   0.00040   0.00230
C2451     0.02400   0.07500   0.03410  -0.00840   0.00570   0.01140
C2452     0.02660   0.09300   0.03870   0.00000   0.00480   0.00300
C2453     0.02540   0.13000   0.04900   0.00200  -0.00310   0.02800
C2454     0.02480   0.15200   0.05000   0.00000  -0.00010   0.01500
N2455     0.02330   0.04710   0.03030  -0.00200   0.00030  -0.00130
N2456     0.02450   0.05650   0.03410  -0.00140  -0.00040  -0.00230
C2457     0.02400   0.07500   0.03410  -0.00840  -0.00570  -0.01140
C2458     0.02660   0.09300   0.03870   0.00000  -0.00480  -0.00300
C2459     0.02540   0.13000   0.04900   0.00200   0.00310  -0.02800
C2460     0.02480   0.15200   0.05000   0.00000   0.00010  -0.01500
N2461     0.04710   0.02330   0.03030   0.00200  -0.00130  -0.00030
N2462     0.05650   0.02450   0.03410   0.00140  -0.00230   0.00040
C2463     0.07500   0.02400   0.03410   0.00840  -0.01140   0.00570
C2464     0.09300   0.02660   0.03870   0.00000  -0.00300   0.00480
C2465     0.13000   0.02540   0.04900  -0.00200  -0.02800  -0.00310
C2466     0.15200   0.02480   0.05000   0.00000  -0.01500  -0.00010
N2467     0.04710   0.02330   0.03030   0.00200   0.00130   0.00030
N2468     0.05650   0.02450   0.03410   0.00140   0.00230  -0.00040
C2469     0.07500   0.02400   0.03410   0.00840   0.01140  -0.00570
C2470     0.09300   0.02660   0.03870   0.00000   0.00300  -0.00480
C2471     0.13000   0.02540   0.04900  -0.00200   0.02800   0.00310
C2472     0.15200   0.02480   0.05000   0.00000   0.01500   0.00010
N2473     0.02330   0.04710   0.03030   0.00200  -0.00030  -0.00130
N2474     0.02450   0.05650   0.03410   0.00140   0.00040  -0.00230
C2475     0.02400   0.07500   0.03410   0.00840   0.00570  -0.01140
C2476     0.02660   0.09300   0.03870   0.00000   0.00480  -0.00300
C2477     0.02540   0.13000   0.04900  -0.00200  -0.00310  -0.02800
C2478     0.02480   0.15200   0.05000   0.00000  -0.00010  -0.01500
N2479     0.02330   0.04710   0.03030   0.00200   0.00030   0.00130
N2480     0.02450   0.05650   0.03410   0.00140  -0.00040   0.00230
C2481     0.02400   0.07500   0.03410   0.00840  -0.00570   0.01140
C2482     0.02660   0.09300   0.03870   0.00000  -0.00480   0.00300
C2483     0.02540   0.13000   0.04900  -0.00200   0.00310   0.02800
C2484     0.02480   0.15200   0.05000   0.00000   0.00010   0.01500
N2485     0.04710   0.02330   0.03030  -0.00200  -0.00130   0.00030
N2486     0.05650   0.02450   0.03410  -0.00140  -0.00230  -0.00040
C2487     0.07500   0.02400   0.03410  -0.00840  -0.01140  -0.00570
C2488     0.09300   0.02660   0.03870   0.00000  -0.00300  -0.00480
C2489     0.13000   0.02540   0.04900   0.00200  -0.02800   0.00310
C2490     0.15200   0.02480   0.05000   0.00000  -0.01500   0.00010
N2491     0.04710   0.02330   0.03030  -0.00200   0.00130  -0.00030
N2492     0.05650   0.02450   0.03410  -0.00140   0.00230   0.00040
C2493     0.07500   0.02400   0.03410  -0.00840   0.01140   0.00570
C2494     0.09300   0.02660   0.03870   0.00000   0.00300   0.00480
C2495     0.13000   0.02540   0.04900   0.00200   0.02800  -0.00310
C2496     0.15200   0.02480   0.05000   0.00000   0.01500  -0.00010
Co2497    0.02490   0.02490   0.02650  -0.00028  -0.00071   0.00071
Co2498    0.02490   0.02490   0.02650  -0.00028   0.00071  -0.00071
Co2499    0.02490   0.02490   0.02650   0.00028  -0.00071  -0.00071
Co2500    0.02490   0.02490   0.02650   0.00028   0.00071   0.00071
C2501     0.01940   0.07600   0.04700   0.00000   0.00000   0.01000
C2502     0.02310   0.06200   0.03900   0.00000   0.00000   0.00900
C2503     0.02250   0.08400   0.04600   0.00000   0.00000   0.03100
C2504     0.02300   0.08800   0.05200   0.00000   0.00000  -0.00900
C2505     0.01940   0.07600   0.04700   0.00000   0.00000  -0.01000
C2506     0.02310   0.06200   0.03900   0.00000   0.00000  -0.00900
C2507     0.02250   0.08400   0.04600   0.00000   0.00000  -0.03100
C2508     0.02300   0.08800   0.05200   0.00000   0.00000   0.00900
C2509     0.07600   0.01940   0.04700   0.00000  -0.01000   0.00000
C2510     0.06200   0.02310   0.03900   0.00000  -0.00900   0.00000
C2511     0.08400   0.02250   0.04600   0.00000  -0.03100   0.00000
C2512     0.08800   0.02300   0.05200   0.00000   0.00900   0.00000
C2513     0.07600   0.01940   0.04700   0.00000   0.01000   0.00000
C2514     0.06200   0.02310   0.03900   0.00000   0.00900   0.00000
C2515     0.08400   0.02250   0.04600   0.00000   0.03100   0.00000
C2516     0.08800   0.02300   0.05200   0.00000  -0.00900   0.00000
N2517     0.02330   0.04710   0.03030  -0.00200  -0.00030   0.00130
N2518     0.02450   0.05650   0.03410  -0.00140   0.00040   0.00230
C2519     0.02400   0.07500   0.03410  -0.00840   0.00570   0.01140
C2520     0.02660   0.09300   0.03870   0.00000   0.00480   0.00300
C2521     0.02540   0.13000   0.04900   0.00200  -0.00310   0.02800
C2522     0.02480   0.15200   0.05000   0.00000  -0.00010   0.01500
N2523     0.02330   0.04710   0.03030  -0.00200   0.00030  -0.00130
N2524     0.02450   0.05650   0.03410  -0.00140  -0.00040  -0.00230
C2525     0.02400   0.07500   0.03410  -0.00840  -0.00570  -0.01140
C2526     0.02660   0.09300   0.03870   0.00000  -0.00480  -0.00300
C2527     0.02540   0.13000   0.04900   0.00200   0.00310  -0.02800
C2528     0.02480   0.15200   0.05000   0.00000   0.00010  -0.01500
N2529     0.04710   0.02330   0.03030   0.00200  -0.00130  -0.00030
N2530     0.05650   0.02450   0.03410   0.00140  -0.00230   0.00040
C2531     0.07500   0.02400   0.03410   0.00840  -0.01140   0.00570
C2532     0.09300   0.02660   0.03870   0.00000  -0.00300   0.00480
C2533     0.13000   0.02540   0.04900  -0.00200  -0.02800  -0.00310
C2534     0.15200   0.02480   0.05000   0.00000  -0.01500  -0.00010
N2535     0.04710   0.02330   0.03030   0.00200   0.00130   0.00030
N2536     0.05650   0.02450   0.03410   0.00140   0.00230  -0.00040
C2537     0.07500   0.02400   0.03410   0.00840   0.01140  -0.00570
C2538     0.09300   0.02660   0.03870   0.00000   0.00300  -0.00480
C2539     0.13000   0.02540   0.04900  -0.00200   0.02800   0.00310
C2540     0.15200   0.02480   0.05000   0.00000   0.01500   0.00010
N2541     0.02330   0.04710   0.03030   0.00200  -0.00030  -0.00130
N2542     0.02450   0.05650   0.03410   0.00140   0.00040  -0.00230
C2543     0.02400   0.07500   0.03410   0.00840   0.00570  -0.01140
C2544     0.02660   0.09300   0.03870   0.00000   0.00480  -0.00300
C2545     0.02540   0.13000   0.04900  -0.00200  -0.00310  -0.02800
C2546     0.02480   0.15200   0.05000   0.00000  -0.00010  -0.01500
N2547     0.02330   0.04710   0.03030   0.00200   0.00030   0.00130
N2548     0.02450   0.05650   0.03410   0.00140  -0.00040   0.00230
C2549     0.02400   0.07500   0.03410   0.00840  -0.00570   0.01140
C2550     0.02660   0.09300   0.03870   0.00000  -0.00480   0.00300
C2551     0.02540   0.13000   0.04900  -0.00200   0.00310   0.02800
C2552     0.02480   0.15200   0.05000   0.00000   0.00010   0.01500
N2553     0.04710   0.02330   0.03030  -0.00200  -0.00130   0.00030
N2554     0.05650   0.02450   0.03410  -0.00140  -0.00230  -0.00040
C2555     0.07500   0.02400   0.03410  -0.00840  -0.01140  -0.00570
C2556     0.09300   0.02660   0.03870   0.00000  -0.00300  -0.00480
C2557     0.13000   0.02540   0.04900   0.00200  -0.02800   0.00310
C2558     0.15200   0.02480   0.05000   0.00000  -0.01500   0.00010
N2559     0.04710   0.02330   0.03030  -0.00200   0.00130  -0.00030
N2560     0.05650   0.02450   0.03410  -0.00140   0.00230   0.00040
C2561     0.07500   0.02400   0.03410  -0.00840   0.01140   0.00570
C2562     0.09300   0.02660   0.03870   0.00000   0.00300   0.00480
C2563     0.13000   0.02540   0.04900   0.00200   0.02800  -0.00310
C2564     0.15200   0.02480   0.05000   0.00000   0.01500  -0.00010
Co2565    0.02490   0.02490   0.02650  -0.00028  -0.00071   0.00071
Co2566    0.02490   0.02490   0.02650  -0.00028   0.00071  -0.00071
Co2567    0.02490   0.02490   0.02650   0.00028  -0.00071  -0.00071
Co2568    0.02490   0.02490   0.02650   0.00028   0.00071   0.00071
C2569     0.01940   0.07600   0.04700   0.00000   0.00000   0.01000
C2570     0.02310   0.06200   0.03900   0.00000   0.00000   0.00900
C2571     0.02250   0.08400   0.04600   0.00000   0.00000   0.03100
C2572     0.02300   0.08800   0.05200   0.00000   0.00000  -0.00900
C2573     0.01940   0.07600   0.04700   0.00000   0.00000  -0.01000
C2574     0.02310   0.06200   0.03900   0.00000   0.00000  -0.00900
C2575     0.02250   0.08400   0.04600   0.00000   0.00000  -0.03100
C2576     0.02300   0.08800   0.05200   0.00000   0.00000   0.00900
C2577     0.07600   0.01940   0.04700   0.00000  -0.01000   0.00000
C2578     0.06200   0.02310   0.03900   0.00000  -0.00900   0.00000
C2579     0.08400   0.02250   0.04600   0.00000  -0.03100   0.00000
C2580     0.08800   0.02300   0.05200   0.00000   0.00900   0.00000
C2581     0.07600   0.01940   0.04700   0.00000   0.01000   0.00000
C2582     0.06200   0.02310   0.03900   0.00000   0.00900   0.00000
C2583     0.08400   0.02250   0.04600   0.00000   0.03100   0.00000
C2584     0.08800   0.02300   0.05200   0.00000  -0.00900   0.00000
N2585     0.02330   0.04710   0.03030  -0.00200  -0.00030   0.00130
N2586     0.02450   0.05650   0.03410  -0.00140   0.00040   0.00230
C2587     0.02400   0.07500   0.03410  -0.00840   0.00570   0.01140
C2588     0.02660   0.09300   0.03870   0.00000   0.00480   0.00300
C2589     0.02540   0.13000   0.04900   0.00200  -0.00310   0.02800
C2590     0.02480   0.15200   0.05000   0.00000  -0.00010   0.01500
N2591     0.02330   0.04710   0.03030  -0.00200   0.00030  -0.00130
N2592     0.02450   0.05650   0.03410  -0.00140  -0.00040  -0.00230
C2593     0.02400   0.07500   0.03410  -0.00840  -0.00570  -0.01140
C2594     0.02660   0.09300   0.03870   0.00000  -0.00480  -0.00300
C2595     0.02540   0.13000   0.04900   0.00200   0.00310  -0.02800
C2596     0.02480   0.15200   0.05000   0.00000   0.00010  -0.01500
N2597     0.04710   0.02330   0.03030   0.00200  -0.00130  -0.00030
N2598     0.05650   0.02450   0.03410   0.00140  -0.00230   0.00040
C2599     0.07500   0.02400   0.03410   0.00840  -0.01140   0.00570
C2600     0.09300   0.02660   0.03870   0.00000  -0.00300   0.00480
C2601     0.13000   0.02540   0.04900  -0.00200  -0.02800  -0.00310
C2602     0.15200   0.02480   0.05000   0.00000  -0.01500  -0.00010
N2603     0.04710   0.02330   0.03030   0.00200   0.00130   0.00030
N2604     0.05650   0.02450   0.03410   0.00140   0.00230  -0.00040
C2605     0.07500   0.02400   0.03410   0.00840   0.01140  -0.00570
C2606     0.09300   0.02660   0.03870   0.00000   0.00300  -0.00480
C2607     0.13000   0.02540   0.04900  -0.00200   0.02800   0.00310
C2608     0.15200   0.02480   0.05000   0.00000   0.01500   0.00010
N2609     0.02330   0.04710   0.03030   0.00200  -0.00030  -0.00130
N2610     0.02450   0.05650   0.03410   0.00140   0.00040  -0.00230
C2611     0.02400   0.07500   0.03410   0.00840   0.00570  -0.01140
C2612     0.02660   0.09300   0.03870   0.00000   0.00480  -0.00300
C2613     0.02540   0.13000   0.04900  -0.00200  -0.00310  -0.02800
C2614     0.02480   0.15200   0.05000   0.00000  -0.00010  -0.01500
N2615     0.02330   0.04710   0.03030   0.00200   0.00030   0.00130
N2616     0.02450   0.05650   0.03410   0.00140  -0.00040   0.00230
C2617     0.02400   0.07500   0.03410   0.00840  -0.00570   0.01140
C2618     0.02660   0.09300   0.03870   0.00000  -0.00480   0.00300
C2619     0.02540   0.13000   0.04900  -0.00200   0.00310   0.02800
C2620     0.02480   0.15200   0.05000   0.00000   0.00010   0.01500
N2621     0.04710   0.02330   0.03030  -0.00200  -0.00130   0.00030
N2622     0.05650   0.02450   0.03410  -0.00140  -0.00230  -0.00040
C2623     0.07500   0.02400   0.03410  -0.00840  -0.01140  -0.00570
C2624     0.09300   0.02660   0.03870   0.00000  -0.00300  -0.00480
C2625     0.13000   0.02540   0.04900   0.00200  -0.02800   0.00310
C2626     0.15200   0.02480   0.05000   0.00000  -0.01500   0.00010
N2627     0.04710   0.02330   0.03030  -0.00200   0.00130  -0.00030
N2628     0.05650   0.02450   0.03410  -0.00140   0.00230   0.00040
C2629     0.07500   0.02400   0.03410  -0.00840   0.01140   0.00570
C2630     0.09300   0.02660   0.03870   0.00000   0.00300   0.00480
C2631     0.13000   0.02540   0.04900   0.00200   0.02800  -0.00310
C2632     0.15200   0.02480   0.05000   0.00000   0.01500  -0.00010
Co2633    0.02490   0.02490   0.02650  -0.00028  -0.00071   0.00071
Co2634    0.02490   0.02490   0.02650  -0.00028   0.00071  -0.00071
Co2635    0.02490   0.02490   0.02650   0.00028  -0.00071  -0.00071
Co2636    0.02490   0.02490   0.02650   0.00028   0.00071   0.00071
C2637     0.01940   0.07600   0.04700   0.00000   0.00000   0.01000
C2638     0.02310   0.06200   0.03900   0.00000   0.00000   0.00900
C2639     0.02250   0.08400   0.04600   0.00000   0.00000   0.03100
C2640     0.02300   0.08800   0.05200   0.00000   0.00000  -0.00900
C2641     0.01940   0.07600   0.04700   0.00000   0.00000  -0.01000
C2642     0.02310   0.06200   0.03900   0.00000   0.00000  -0.00900
C2643     0.02250   0.08400   0.04600   0.00000   0.00000  -0.03100
C2644     0.02300   0.08800   0.05200   0.00000   0.00000   0.00900
C2645     0.07600   0.01940   0.04700   0.00000  -0.01000   0.00000
C2646     0.06200   0.02310   0.03900   0.00000  -0.00900   0.00000
C2647     0.08400   0.02250   0.04600   0.00000  -0.03100   0.00000
C2648     0.08800   0.02300   0.05200   0.00000   0.00900   0.00000
C2649     0.07600   0.01940   0.04700   0.00000   0.01000   0.00000
C2650     0.06200   0.02310   0.03900   0.00000   0.00900   0.00000
C2651     0.08400   0.02250   0.04600   0.00000   0.03100   0.00000
C2652     0.08800   0.02300   0.05200   0.00000  -0.00900   0.00000
N2653     0.02330   0.04710   0.03030  -0.00200  -0.00030   0.00130
N2654     0.02450   0.05650   0.03410  -0.00140   0.00040   0.00230
C2655     0.02400   0.07500   0.03410  -0.00840   0.00570   0.01140
C2656     0.02660   0.09300   0.03870   0.00000   0.00480   0.00300
C2657     0.02540   0.13000   0.04900   0.00200  -0.00310   0.02800
C2658     0.02480   0.15200   0.05000   0.00000  -0.00010   0.01500
N2659     0.02330   0.04710   0.03030  -0.00200   0.00030  -0.00130
N2660     0.02450   0.05650   0.03410  -0.00140  -0.00040  -0.00230
C2661     0.02400   0.07500   0.03410  -0.00840  -0.00570  -0.01140
C2662     0.02660   0.09300   0.03870   0.00000  -0.00480  -0.00300
C2663     0.02540   0.13000   0.04900   0.00200   0.00310  -0.02800
C2664     0.02480   0.15200   0.05000   0.00000   0.00010  -0.01500
N2665     0.04710   0.02330   0.03030   0.00200  -0.00130  -0.00030
N2666     0.05650   0.02450   0.03410   0.00140  -0.00230   0.00040
C2667     0.07500   0.02400   0.03410   0.00840  -0.01140   0.00570
C2668     0.09300   0.02660   0.03870   0.00000  -0.00300   0.00480
C2669     0.13000   0.02540   0.04900  -0.00200  -0.02800  -0.00310
C2670     0.15200   0.02480   0.05000   0.00000  -0.01500  -0.00010
N2671     0.04710   0.02330   0.03030   0.00200   0.00130   0.00030
N2672     0.05650   0.02450   0.03410   0.00140   0.00230  -0.00040
C2673     0.07500   0.02400   0.03410   0.00840   0.01140  -0.00570
C2674     0.09300   0.02660   0.03870   0.00000   0.00300  -0.00480
C2675     0.13000   0.02540   0.04900  -0.00200   0.02800   0.00310
C2676     0.15200   0.02480   0.05000   0.00000   0.01500   0.00010
N2677     0.02330   0.04710   0.03030   0.00200  -0.00030  -0.00130
N2678     0.02450   0.05650   0.03410   0.00140   0.00040  -0.00230
C2679     0.02400   0.07500   0.03410   0.00840   0.00570  -0.01140
C2680     0.02660   0.09300   0.03870   0.00000   0.00480  -0.00300
C2681     0.02540   0.13000   0.04900  -0.00200  -0.00310  -0.02800
C2682     0.02480   0.15200   0.05000   0.00000  -0.00010  -0.01500
N2683     0.02330   0.04710   0.03030   0.00200   0.00030   0.00130
N2684     0.02450   0.05650   0.03410   0.00140  -0.00040   0.00230
C2685     0.02400   0.07500   0.03410   0.00840  -0.00570   0.01140
C2686     0.02660   0.09300   0.03870   0.00000  -0.00480   0.00300
C2687     0.02540   0.13000   0.04900  -0.00200   0.00310   0.02800
C2688     0.02480   0.15200   0.05000   0.00000   0.00010   0.01500
N2689     0.04710   0.02330   0.03030  -0.00200  -0.00130   0.00030
N2690     0.05650   0.02450   0.03410  -0.00140  -0.00230  -0.00040
C2691     0.07500   0.02400   0.03410  -0.00840  -0.01140  -0.00570
C2692     0.09300   0.02660   0.03870   0.00000  -0.00300  -0.00480
C2693     0.13000   0.02540   0.04900   0.00200  -0.02800   0.00310
C2694     0.15200   0.02480   0.05000   0.00000  -0.01500   0.00010
N2695     0.04710   0.02330   0.03030  -0.00200   0.00130  -0.00030
N2696     0.05650   0.02450   0.03410  -0.00140   0.00230   0.00040
C2697     0.07500   0.02400   0.03410  -0.00840   0.01140   0.00570
C2698     0.09300   0.02660   0.03870   0.00000   0.00300   0.00480
C2699     0.13000   0.02540   0.04900   0.00200   0.02800  -0.00310
C2700     0.15200   0.02480   0.05000   0.00000   0.01500  -0.00010
Co2701    0.02490   0.02490   0.02650  -0.00028  -0.00071   0.00071
Co2702    0.02490   0.02490   0.02650  -0.00028   0.00071  -0.00071
Co2703    0.02490   0.02490   0.02650   0.00028  -0.00071  -0.00071
Co2704    0.02490   0.02490   0.02650   0.00028   0.00071   0.00071
C2705     0.01940   0.07600   0.04700   0.00000   0.00000   0.01000
C2706     0.02310   0.06200   0.03900   0.00000   0.00000   0.00900
C2707     0.02250   0.08400   0.04600   0.00000   0.00000   0.03100
C2708     0.02300   0.08800   0.05200   0.00000   0.00000  -0.00900
C2709     0.01940   0.07600   0.04700   0.00000   0.00000  -0.01000
C2710     0.02310   0.06200   0.03900   0.00000   0.00000  -0.00900
C2711     0.02250   0.08400   0.04600   0.00000   0.00000  -0.03100
C2712     0.02300   0.08800   0.05200   0.00000   0.00000   0.00900
C2713     0.07600   0.01940   0.04700   0.00000  -0.01000   0.00000
C2714     0.06200   0.02310   0.03900   0.00000  -0.00900   0.00000
C2715     0.08400   0.02250   0.04600   0.00000  -0.03100   0.00000
C2716     0.08800   0.02300   0.05200   0.00000   0.00900   0.00000
C2717     0.07600   0.01940   0.04700   0.00000   0.01000   0.00000
C2718     0.06200   0.02310   0.03900   0.00000   0.00900   0.00000
C2719     0.08400   0.02250   0.04600   0.00000   0.03100   0.00000
C2720     0.08800   0.02300   0.05200   0.00000  -0.00900   0.00000
N2721     0.02330   0.04710   0.03030  -0.00200  -0.00030   0.00130
N2722     0.02450   0.05650   0.03410  -0.00140   0.00040   0.00230
C2723     0.02400   0.07500   0.03410  -0.00840   0.00570   0.01140
C2724     0.02660   0.09300   0.03870   0.00000   0.00480   0.00300
C2725     0.02540   0.13000   0.04900   0.00200  -0.00310   0.02800
C2726     0.02480   0.15200   0.05000   0.00000  -0.00010   0.01500
N2727     0.02330   0.04710   0.03030  -0.00200   0.00030  -0.00130
N2728     0.02450   0.05650   0.03410  -0.00140  -0.00040  -0.00230
C2729     0.02400   0.07500   0.03410  -0.00840  -0.00570  -0.01140
C2730     0.02660   0.09300   0.03870   0.00000  -0.00480  -0.00300
C2731     0.02540   0.13000   0.04900   0.00200   0.00310  -0.02800
C2732     0.02480   0.15200   0.05000   0.00000   0.00010  -0.01500
N2733     0.04710   0.02330   0.03030   0.00200  -0.00130  -0.00030
N2734     0.05650   0.02450   0.03410   0.00140  -0.00230   0.00040
C2735     0.07500   0.02400   0.03410   0.00840  -0.01140   0.00570
C2736     0.09300   0.02660   0.03870   0.00000  -0.00300   0.00480
C2737     0.13000   0.02540   0.04900  -0.00200  -0.02800  -0.00310
C2738     0.15200   0.02480   0.05000   0.00000  -0.01500  -0.00010
N2739     0.04710   0.02330   0.03030   0.00200   0.00130   0.00030
N2740     0.05650   0.02450   0.03410   0.00140   0.00230  -0.00040
C2741     0.07500   0.02400   0.03410   0.00840   0.01140  -0.00570
C2742     0.09300   0.02660   0.03870   0.00000   0.00300  -0.00480
C2743     0.13000   0.02540   0.04900  -0.00200   0.02800   0.00310
C2744     0.15200   0.02480   0.05000   0.00000   0.01500   0.00010
N2745     0.02330   0.04710   0.03030   0.00200  -0.00030  -0.00130
N2746     0.02450   0.05650   0.03410   0.00140   0.00040  -0.00230
C2747     0.02400   0.07500   0.03410   0.00840   0.00570  -0.01140
C2748     0.02660   0.09300   0.03870   0.00000   0.00480  -0.00300
C2749     0.02540   0.13000   0.04900  -0.00200  -0.00310  -0.02800
C2750     0.02480   0.15200   0.05000   0.00000  -0.00010  -0.01500
N2751     0.02330   0.04710   0.03030   0.00200   0.00030   0.00130
N2752     0.02450   0.05650   0.03410   0.00140  -0.00040   0.00230
C2753     0.02400   0.07500   0.03410   0.00840  -0.00570   0.01140
C2754     0.02660   0.09300   0.03870   0.00000  -0.00480   0.00300
C2755     0.02540   0.13000   0.04900  -0.00200   0.00310   0.02800
C2756     0.02480   0.15200   0.05000   0.00000   0.00010   0.01500
N2757     0.04710   0.02330   0.03030  -0.00200  -0.00130   0.00030
N2758     0.05650   0.02450   0.03410  -0.00140  -0.00230  -0.00040
C2759     0.07500   0.02400   0.03410  -0.00840  -0.01140  -0.00570
C2760     0.09300   0.02660   0.03870   0.00000  -0.00300  -0.00480
C2761     0.13000   0.02540   0.04900   0.00200  -0.02800   0.00310
C2762     0.15200   0.02480   0.05000   0.00000  -0.01500   0.00010
N2763     0.04710   0.02330   0.03030  -0.00200   0.00130  -0.00030
N2764     0.05650   0.02450   0.03410  -0.00140   0.00230   0.00040
C2765     0.07500   0.02400   0.03410  -0.00840   0.01140   0.00570
C2766     0.09300   0.02660   0.03870   0.00000   0.00300   0.00480
C2767     0.13000   0.02540   0.04900   0.00200   0.02800  -0.00310
C2768     0.15200   0.02480   0.05000   0.00000   0.01500  -0.00010
Co2769    0.02490   0.02490   0.02650  -0.00028  -0.00071   0.00071
Co2770    0.02490   0.02490   0.02650  -0.00028   0.00071  -0.00071
Co2771    0.02490   0.02490   0.02650   0.00028  -0.00071  -0.00071
Co2772    0.02490   0.02490   0.02650   0.00028   0.00071   0.00071
C2773     0.01940   0.07600   0.04700   0.00000   0.00000   0.01000
C2774     0.02310   0.06200   0.03900   0.00000   0.00000   0.00900
C2775     0.02250   0.08400   0.04600   0.00000   0.00000   0.03100
C2776     0.02300   0.08800   0.05200   0.00000   0.00000  -0.00900
C2777     0.01940   0.07600   0.04700   0.00000   0.00000  -0.01000
C2778     0.02310   0.06200   0.03900   0.00000   0.00000  -0.00900
C2779     0.02250   0.08400   0.04600   0.00000   0.00000  -0.03100
C2780     0.02300   0.08800   0.05200   0.00000   0.00000   0.00900
C2781     0.07600   0.01940   0.04700   0.00000  -0.01000   0.00000
C2782     0.06200   0.02310   0.03900   0.00000  -0.00900   0.00000
C2783     0.08400   0.02250   0.04600   0.00000  -0.03100   0.00000
C2784     0.08800   0.02300   0.05200   0.00000   0.00900   0.00000
C2785     0.07600   0.01940   0.04700   0.00000   0.01000   0.00000
C2786     0.06200   0.02310   0.03900   0.00000   0.00900   0.00000
C2787     0.08400   0.02250   0.04600   0.00000   0.03100   0.00000
C2788     0.08800   0.02300   0.05200   0.00000  -0.00900   0.00000
N2789     0.02330   0.04710   0.03030  -0.00200  -0.00030   0.00130
N2790     0.02450   0.05650   0.03410  -0.00140   0.00040   0.00230
C2791     0.02400   0.07500   0.03410  -0.00840   0.00570   0.01140
C2792     0.02660   0.09300   0.03870   0.00000   0.00480   0.00300
C2793     0.02540   0.13000   0.04900   0.00200  -0.00310   0.02800
C2794     0.02480   0.15200   0.05000   0.00000  -0.00010   0.01500
N2795     0.02330   0.04710   0.03030  -0.00200   0.00030  -0.00130
N2796     0.02450   0.05650   0.03410  -0.00140  -0.00040  -0.00230
C2797     0.02400   0.07500   0.03410  -0.00840  -0.00570  -0.01140
C2798     0.02660   0.09300   0.03870   0.00000  -0.00480  -0.00300
C2799     0.02540   0.13000   0.04900   0.00200   0.00310  -0.02800
C2800     0.02480   0.15200   0.05000   0.00000   0.00010  -0.01500
N2801     0.04710   0.02330   0.03030   0.00200  -0.00130  -0.00030
N2802     0.05650   0.02450   0.03410   0.00140  -0.00230   0.00040
C2803     0.07500   0.02400   0.03410   0.00840  -0.01140   0.00570
C2804     0.09300   0.02660   0.03870   0.00000  -0.00300   0.00480
C2805     0.13000   0.02540   0.04900  -0.00200  -0.02800  -0.00310
C2806     0.15200   0.02480   0.05000   0.00000  -0.01500  -0.00010
N2807     0.04710   0.02330   0.03030   0.00200   0.00130   0.00030
N2808     0.05650   0.02450   0.03410   0.00140   0.00230  -0.00040
C2809     0.07500   0.02400   0.03410   0.00840   0.01140  -0.00570
C2810     0.09300   0.02660   0.03870   0.00000   0.00300  -0.00480
C2811     0.13000   0.02540   0.04900  -0.00200   0.02800   0.00310
C2812     0.15200   0.02480   0.05000   0.00000   0.01500   0.00010
N2813     0.02330   0.04710   0.03030   0.00200  -0.00030  -0.00130
N2814     0.02450   0.05650   0.03410   0.00140   0.00040  -0.00230
C2815     0.02400   0.07500   0.03410   0.00840   0.00570  -0.01140
C2816     0.02660   0.09300   0.03870   0.00000   0.00480  -0.00300
C2817     0.02540   0.13000   0.04900  -0.00200  -0.00310  -0.02800
C2818     0.02480   0.15200   0.05000   0.00000  -0.00010  -0.01500
N2819     0.02330   0.04710   0.03030   0.00200   0.00030   0.00130
N2820     0.02450   0.05650   0.03410   0.00140  -0.00040   0.00230
C2821     0.02400   0.07500   0.03410   0.00840  -0.00570   0.01140
C2822     0.02660   0.09300   0.03870   0.00000  -0.00480   0.00300
C2823     0.02540   0.13000   0.04900  -0.00200   0.00310   0.02800
C2824     0.02480   0.15200   0.05000   0.00000   0.00010   0.01500
N2825     0.04710   0.02330   0.03030  -0.00200  -0.00130   0.00030
N2826     0.05650   0.02450   0.03410  -0.00140  -0.00230  -0.00040
C2827     0.07500   0.02400   0.03410  -0.00840  -0.01140  -0.00570
C2828     0.09300   0.02660   0.03870   0.00000  -0.00300  -0.00480
C2829     0.13000   0.02540   0.04900   0.00200  -0.02800   0.00310
C2830     0.15200   0.02480   0.05000   0.00000  -0.01500   0.00010
N2831     0.04710   0.02330   0.03030  -0.00200   0.00130  -0.00030
N2832     0.05650   0.02450   0.03410  -0.00140   0.00230   0.00040
C2833     0.07500   0.02400   0.03410  -0.00840   0.01140   0.00570
C2834     0.09300   0.02660   0.03870   0.00000   0.00300   0.00480
C2835     0.13000   0.02540   0.04900   0.00200   0.02800  -0.00310
C2836     0.15200   0.02480   0.05000   0.00000   0.01500  -0.00010
Co2837    0.02490   0.02490   0.02650  -0.00028  -0.00071   0.00071
Co2838    0.02490   0.02490   0.02650  -0.00028   0.00071  -0.00071
Co2839    0.02490   0.02490   0.02650   0.00028  -0.00071  -0.00071
Co2840    0.02490   0.02490   0.02650   0.00028   0.00071   0.00071
C2841     0.01940   0.07600   0.04700   0.00000   0.00000   0.01000
C2842     0.02310   0.06200   0.03900   0.00000   0.00000   0.00900
C2843     0.02250   0.08400   0.04600   0.00000   0.00000   0.03100
C2844     0.02300   0.08800   0.05200   0.00000   0.00000  -0.00900
C2845     0.01940   0.07600   0.04700   0.00000   0.00000  -0.01000
C2846     0.02310   0.06200   0.03900   0.00000   0.00000  -0.00900
C2847     0.02250   0.08400   0.04600   0.00000   0.00000  -0.03100
C2848     0.02300   0.08800   0.05200   0.00000   0.00000   0.00900
C2849     0.07600   0.01940   0.04700   0.00000  -0.01000   0.00000
C2850     0.06200   0.02310   0.03900   0.00000  -0.00900   0.00000
C2851     0.08400   0.02250   0.04600   0.00000  -0.03100   0.00000
C2852     0.08800   0.02300   0.05200   0.00000   0.00900   0.00000
C2853     0.07600   0.01940   0.04700   0.00000   0.01000   0.00000
C2854     0.06200   0.02310   0.03900   0.00000   0.00900   0.00000
C2855     0.08400   0.02250   0.04600   0.00000   0.03100   0.00000
C2856     0.08800   0.02300   0.05200   0.00000  -0.00900   0.00000
N2857     0.02330   0.04710   0.03030  -0.00200  -0.00030   0.00130
N2858     0.02450   0.05650   0.03410  -0.00140   0.00040   0.00230
C2859     0.02400   0.07500   0.03410  -0.00840   0.00570   0.01140
C2860     0.02660   0.09300   0.03870   0.00000   0.00480   0.00300
C2861     0.02540   0.13000   0.04900   0.00200  -0.00310   0.02800
C2862     0.02480   0.15200   0.05000   0.00000  -0.00010   0.01500
N2863     0.02330   0.04710   0.03030  -0.00200   0.00030  -0.00130
N2864     0.02450   0.05650   0.03410  -0.00140  -0.00040  -0.00230
C2865     0.02400   0.07500   0.03410  -0.00840  -0.00570  -0.01140
C2866     0.02660   0.09300   0.03870   0.00000  -0.00480  -0.00300
C2867     0.02540   0.13000   0.04900   0.00200   0.00310  -0.02800
C2868     0.02480   0.15200   0.05000   0.00000   0.00010  -0.01500
N2869     0.04710   0.02330   0.03030   0.00200  -0.00130  -0.00030
N2870     0.05650   0.02450   0.03410   0.00140  -0.00230   0.00040
C2871     0.07500   0.02400   0.03410   0.00840  -0.01140   0.00570
C2872     0.09300   0.02660   0.03870   0.00000  -0.00300   0.00480
C2873     0.13000   0.02540   0.04900  -0.00200  -0.02800  -0.00310
C2874     0.15200   0.02480   0.05000   0.00000  -0.01500  -0.00010
N2875     0.04710   0.02330   0.03030   0.00200   0.00130   0.00030
N2876     0.05650   0.02450   0.03410   0.00140   0.00230  -0.00040
C2877     0.07500   0.02400   0.03410   0.00840   0.01140  -0.00570
C2878     0.09300   0.02660   0.03870   0.00000   0.00300  -0.00480
C2879     0.13000   0.02540   0.04900  -0.00200   0.02800   0.00310
C2880     0.15200   0.02480   0.05000   0.00000   0.01500   0.00010
N2881     0.02330   0.04710   0.03030   0.00200  -0.00030  -0.00130
N2882     0.02450   0.05650   0.03410   0.00140   0.00040  -0.00230
C2883     0.02400   0.07500   0.03410   0.00840   0.00570  -0.01140
C2884     0.02660   0.09300   0.03870   0.00000   0.00480  -0.00300
C2885     0.02540   0.13000   0.04900  -0.00200  -0.00310  -0.02800
C2886     0.02480   0.15200   0.05000   0.00000  -0.00010  -0.01500
N2887     0.02330   0.04710   0.03030   0.00200   0.00030   0.00130
N2888     0.02450   0.05650   0.03410   0.00140  -0.00040   0.00230
C2889     0.02400   0.07500   0.03410   0.00840  -0.00570   0.01140
C2890     0.02660   0.09300   0.03870   0.00000  -0.00480   0.00300
C2891     0.02540   0.13000   0.04900  -0.00200   0.00310   0.02800
C2892     0.02480   0.15200   0.05000   0.00000   0.00010   0.01500
N2893     0.04710   0.02330   0.03030  -0.00200  -0.00130   0.00030
N2894     0.05650   0.02450   0.03410  -0.00140  -0.00230  -0.00040
C2895     0.07500   0.02400   0.03410  -0.00840  -0.01140  -0.00570
C2896     0.09300   0.02660   0.03870   0.00000  -0.00300  -0.00480
C2897     0.13000   0.02540   0.04900   0.00200  -0.02800   0.00310
C2898     0.15200   0.02480   0.05000   0.00000  -0.01500   0.00010
N2899     0.04710   0.02330   0.03030  -0.00200   0.00130  -0.00030
N2900     0.05650   0.02450   0.03410  -0.00140   0.00230   0.00040
C2901     0.07500   0.02400   0.03410  -0.00840   0.01140   0.00570
C2902     0.09300   0.02660   0.03870   0.00000   0.00300   0.00480
C2903     0.13000   0.02540   0.04900   0.00200   0.02800  -0.00310
C2904     0.15200   0.02480   0.05000   0.00000   0.01500  -0.00010
Co2905    0.02490   0.02490   0.02650  -0.00028  -0.00071   0.00071
Co2906    0.02490   0.02490   0.02650  -0.00028   0.00071  -0.00071
Co2907    0.02490   0.02490   0.02650   0.00028  -0.00071  -0.00071
Co2908    0.02490   0.02490   0.02650   0.00028   0.00071   0.00071
C2909     0.01940   0.07600   0.04700   0.00000   0.00000   0.01000
C2910     0.02310   0.06200   0.03900   0.00000   0.00000   0.00900
C2911     0.02250   0.08400   0.04600   0.00000   0.00000   0.03100
C2912     0.02300   0.08800   0.05200   0.00000   0.00000  -0.00900
C2913     0.01940   0.07600   0.04700   0.00000   0.00000  -0.01000
C2914     0.02310   0.06200   0.03900   0.00000   0.00000  -0.00900
C2915     0.02250   0.08400   0.04600   0.00000   0.00000  -0.03100
C2916     0.02300   0.08800   0.05200   0.00000   0.00000   0.00900
C2917     0.07600   0.01940   0.04700   0.00000  -0.01000   0.00000
C2918     0.06200   0.02310   0.03900   0.00000  -0.00900   0.00000
C2919     0.08400   0.02250   0.04600   0.00000  -0.03100   0.00000
C2920     0.08800   0.02300   0.05200   0.00000   0.00900   0.00000
C2921     0.07600   0.01940   0.04700   0.00000   0.01000   0.00000
C2922     0.06200   0.02310   0.03900   0.00000   0.00900   0.00000
C2923     0.08400   0.02250   0.04600   0.00000   0.03100   0.00000
C2924     0.08800   0.02300   0.05200   0.00000  -0.00900   0.00000
N2925     0.02330   0.04710   0.03030  -0.00200  -0.00030   0.00130
N2926     0.02450   0.05650   0.03410  -0.00140   0.00040   0.00230
C2927     0.02400   0.07500   0.03410  -0.00840   0.00570   0.01140
C2928     0.02660   0.09300   0.03870   0.00000   0.00480   0.00300
C2929     0.02540   0.13000   0.04900   0.00200  -0.00310   0.02800
C2930     0.02480   0.15200   0.05000   0.00000  -0.00010   0.01500
N2931     0.02330   0.04710   0.03030  -0.00200   0.00030  -0.00130
N2932     0.02450   0.05650   0.03410  -0.00140  -0.00040  -0.00230
C2933     0.02400   0.07500   0.03410  -0.00840  -0.00570  -0.01140
C2934     0.02660   0.09300   0.03870   0.00000  -0.00480  -0.00300
C2935     0.02540   0.13000   0.04900   0.00200   0.00310  -0.02800
C2936     0.02480   0.15200   0.05000   0.00000   0.00010  -0.01500
N2937     0.04710   0.02330   0.03030   0.00200  -0.00130  -0.00030
N2938     0.05650   0.02450   0.03410   0.00140  -0.00230   0.00040
C2939     0.07500   0.02400   0.03410   0.00840  -0.01140   0.00570
C2940     0.09300   0.02660   0.03870   0.00000  -0.00300   0.00480
C2941     0.13000   0.02540   0.04900  -0.00200  -0.02800  -0.00310
C2942     0.15200   0.02480   0.05000   0.00000  -0.01500  -0.00010
N2943     0.04710   0.02330   0.03030   0.00200   0.00130   0.00030
N2944     0.05650   0.02450   0.03410   0.00140   0.00230  -0.00040
C2945     0.07500   0.02400   0.03410   0.00840   0.01140  -0.00570
C2946     0.09300   0.02660   0.03870   0.00000   0.00300  -0.00480
C2947     0.13000   0.02540   0.04900  -0.00200   0.02800   0.00310
C2948     0.15200   0.02480   0.05000   0.00000   0.01500   0.00010
N2949     0.02330   0.04710   0.03030   0.00200  -0.00030  -0.00130
N2950     0.02450   0.05650   0.03410   0.00140   0.00040  -0.00230
C2951     0.02400   0.07500   0.03410   0.00840   0.00570  -0.01140
C2952     0.02660   0.09300   0.03870   0.00000   0.00480  -0.00300
C2953     0.02540   0.13000   0.04900  -0.00200  -0.00310  -0.02800
C2954     0.02480   0.15200   0.05000   0.00000  -0.00010  -0.01500
N2955     0.02330   0.04710   0.03030   0.00200   0.00030   0.00130
N2956     0.02450   0.05650   0.03410   0.00140  -0.00040   0.00230
C2957     0.02400   0.07500   0.03410   0.00840  -0.00570   0.01140
C2958     0.02660   0.09300   0.03870   0.00000  -0.00480   0.00300
C2959     0.02540   0.13000   0.04900  -0.00200   0.00310   0.02800
C2960     0.02480   0.15200   0.05000   0.00000   0.00010   0.01500
N2961     0.04710   0.02330   0.03030  -0.00200  -0.00130   0.00030
N2962     0.05650   0.02450   0.03410  -0.00140  -0.00230  -0.00040
C2963     0.07500   0.02400   0.03410  -0.00840  -0.01140  -0.00570
C2964     0.09300   0.02660   0.03870   0.00000  -0.00300  -0.00480
C2965     0.13000   0.02540   0.04900   0.00200  -0.02800   0.00310
C2966     0.15200   0.02480   0.05000   0.00000  -0.01500   0.00010
N2967     0.04710   0.02330   0.03030  -0.00200   0.00130  -0.00030
N2968     0.05650   0.02450   0.03410  -0.00140   0.00230   0.00040
C2969     0.07500   0.02400   0.03410  -0.00840   0.01140   0.00570
C2970     0.09300   0.02660   0.03870   0.00000   0.00300   0.00480
C2971     0.13000   0.02540   0.04900   0.00200   0.02800  -0.00310
C2972     0.15200   0.02480   0.05000   0.00000   0.01500  -0.00010
Co2973    0.02490   0.02490   0.02650  -0.00028  -0.00071   0.00071
Co2974    0.02490   0.02490   0.02650  -0.00028   0.00071  -0.00071
Co2975    0.02490   0.02490   0.02650   0.00028  -0.00071  -0.00071
Co2976    0.02490   0.02490   0.02650   0.00028   0.00071   0.00071
C2977     0.01940   0.07600   0.04700   0.00000   0.00000   0.01000
C2978     0.02310   0.06200   0.03900   0.00000   0.00000   0.00900
C2979     0.02250   0.08400   0.04600   0.00000   0.00000   0.03100
C2980     0.02300   0.08800   0.05200   0.00000   0.00000  -0.00900
C2981     0.01940   0.07600   0.04700   0.00000   0.00000  -0.01000
C2982     0.02310   0.06200   0.03900   0.00000   0.00000  -0.00900
C2983     0.02250   0.08400   0.04600   0.00000   0.00000  -0.03100
C2984     0.02300   0.08800   0.05200   0.00000   0.00000   0.00900
C2985     0.07600   0.01940   0.04700   0.00000  -0.01000   0.00000
C2986     0.06200   0.02310   0.03900   0.00000  -0.00900   0.00000
C2987     0.08400   0.02250   0.04600   0.00000  -0.03100   0.00000
C2988     0.08800   0.02300   0.05200   0.00000   0.00900   0.00000
C2989     0.07600   0.01940   0.04700   0.00000   0.01000   0.00000
C2990     0.06200   0.02310   0.03900   0.00000   0.00900   0.00000
C2991     0.08400   0.02250   0.04600   0.00000   0.03100   0.00000
C2992     0.08800   0.02300   0.05200   0.00000  -0.00900   0.00000
N2993     0.02330   0.04710   0.03030  -0.00200  -0.00030   0.00130
N2994     0.02450   0.05650   0.03410  -0.00140   0.00040   0.00230
C2995     0.02400   0.07500   0.03410  -0.00840   0.00570   0.01140
C2996     0.02660   0.09300   0.03870   0.00000   0.00480   0.00300
C2997     0.02540   0.13000   0.04900   0.00200  -0.00310   0.02800
C2998     0.02480   0.15200   0.05000   0.00000  -0.00010   0.01500
N2999     0.02330   0.04710   0.03030  -0.00200   0.00030  -0.00130
N3000     0.02450   0.05650   0.03410  -0.00140  -0.00040  -0.00230
C3001     0.02400   0.07500   0.03410  -0.00840  -0.00570  -0.01140
C3002     0.02660   0.09300   0.03870   0.00000  -0.00480  -0.00300
C3003     0.02540   0.13000   0.04900   0.00200   0.00310  -0.02800
C3004     0.02480   0.15200   0.05000   0.00000   0.00010  -0.01500
N3005     0.04710   0.02330   0.03030   0.00200  -0.00130  -0.00030
N3006     0.05650   0.02450   0.03410   0.00140  -0.00230   0.00040
C3007     0.07500   0.02400   0.03410   0.00840  -0.01140   0.00570
C3008     0.09300   0.02660   0.03870   0.00000  -0.00300   0.00480
C3009     0.13000   0.02540   0.04900  -0.00200  -0.02800  -0.00310
C3010     0.15200   0.02480   0.05000   0.00000  -0.01500  -0.00010
N3011     0.04710   0.02330   0.03030   0.00200   0.00130   0.00030
N3012     0.05650   0.02450   0.03410   0.00140   0.00230  -0.00040
C3013     0.07500   0.02400   0.03410   0.00840   0.01140  -0.00570
C3014     0.09300   0.02660   0.03870   0.00000   0.00300  -0.00480
C3015     0.13000   0.02540   0.04900  -0.00200   0.02800   0.00310
C3016     0.15200   0.02480   0.05000   0.00000   0.01500   0.00010
N3017     0.02330   0.04710   0.03030   0.00200  -0.00030  -0.00130
N3018     0.02450   0.05650   0.03410   0.00140   0.00040  -0.00230
C3019     0.02400   0.07500   0.03410   0.00840   0.00570  -0.01140
C3020     0.02660   0.09300   0.03870   0.00000   0.00480  -0.00300
C3021     0.02540   0.13000   0.04900  -0.00200  -0.00310  -0.02800
C3022     0.02480   0.15200   0.05000   0.00000  -0.00010  -0.01500
N3023     0.02330   0.04710   0.03030   0.00200   0.00030   0.00130
N3024     0.02450   0.05650   0.03410   0.00140  -0.00040   0.00230
C3025     0.02400   0.07500   0.03410   0.00840  -0.00570   0.01140
C3026     0.02660   0.09300   0.03870   0.00000  -0.00480   0.00300
C3027     0.02540   0.13000   0.04900  -0.00200   0.00310   0.02800
C3028     0.02480   0.15200   0.05000   0.00000   0.00010   0.01500
N3029     0.04710   0.02330   0.03030  -0.00200  -0.00130   0.00030
N3030     0.05650   0.02450   0.03410  -0.00140  -0.00230  -0.00040
C3031     0.07500   0.02400   0.03410  -0.00840  -0.01140  -0.00570
C3032     0.09300   0.02660   0.03870   0.00000  -0.00300  -0.00480
C3033     0.13000   0.02540   0.04900   0.00200  -0.02800   0.00310
C3034     0.15200   0.02480   0.05000   0.00000  -0.01500   0.00010
N3035     0.04710   0.02330   0.03030  -0.00200   0.00130  -0.00030
N3036     0.05650   0.02450   0.03410  -0.00140   0.00230   0.00040
C3037     0.07500   0.02400   0.03410  -0.00840   0.01140   0.00570
C3038     0.09300   0.02660   0.03870   0.00000   0.00300   0.00480
C3039     0.13000   0.02540   0.04900   0.00200   0.02800  -0.00310
C3040     0.15200   0.02480   0.05000   0.00000   0.01500  -0.00010
Co3041    0.02490   0.02490   0.02650  -0.00028  -0.00071   0.00071
Co3042    0.02490   0.02490   0.02650  -0.00028   0.00071  -0.00071
Co3043    0.02490   0.02490   0.02650   0.00028  -0.00071  -0.00071
Co3044    0.02490   0.02490   0.02650   0.00028   0.00071   0.00071
C3045     0.01940   0.07600   0.04700   0.00000   0.00000   0.01000
C3046     0.02310   0.06200   0.03900   0.00000   0.00000   0.00900
C3047     0.02250   0.08400   0.04600   0.00000   0.00000   0.03100
C3048     0.02300   0.08800   0.05200   0.00000   0.00000  -0.00900
C3049     0.01940   0.07600   0.04700   0.00000   0.00000  -0.01000
C3050     0.02310   0.06200   0.03900   0.00000   0.00000  -0.00900
C3051     0.02250   0.08400   0.04600   0.00000   0.00000  -0.03100
C3052     0.02300   0.08800   0.05200   0.00000   0.00000   0.00900
C3053     0.07600   0.01940   0.04700   0.00000  -0.01000   0.00000
C3054     0.06200   0.02310   0.03900   0.00000  -0.00900   0.00000
C3055     0.08400   0.02250   0.04600   0.00000  -0.03100   0.00000
C3056     0.08800   0.02300   0.05200   0.00000   0.00900   0.00000
C3057     0.07600   0.01940   0.04700   0.00000   0.01000   0.00000
C3058     0.06200   0.02310   0.03900   0.00000   0.00900   0.00000
C3059     0.08400   0.02250   0.04600   0.00000   0.03100   0.00000
C3060     0.08800   0.02300   0.05200   0.00000  -0.00900   0.00000
N3061     0.02330   0.04710   0.03030  -0.00200  -0.00030   0.00130
N3062     0.02450   0.05650   0.03410  -0.00140   0.00040   0.00230
C3063     0.02400   0.07500   0.03410  -0.00840   0.00570   0.01140
C3064     0.02660   0.09300   0.03870   0.00000   0.00480   0.00300
C3065     0.02540   0.13000   0.04900   0.00200  -0.00310   0.02800
C3066     0.02480   0.15200   0.05000   0.00000  -0.00010   0.01500
N3067     0.02330   0.04710   0.03030  -0.00200   0.00030  -0.00130
N3068     0.02450   0.05650   0.03410  -0.00140  -0.00040  -0.00230
C3069     0.02400   0.07500   0.03410  -0.00840  -0.00570  -0.01140
C3070     0.02660   0.09300   0.03870   0.00000  -0.00480  -0.00300
C3071     0.02540   0.13000   0.04900   0.00200   0.00310  -0.02800
C3072     0.02480   0.15200   0.05000   0.00000   0.00010  -0.01500
N3073     0.04710   0.02330   0.03030   0.00200  -0.00130  -0.00030
N3074     0.05650   0.02450   0.03410   0.00140  -0.00230   0.00040
C3075     0.07500   0.02400   0.03410   0.00840  -0.01140   0.00570
C3076     0.09300   0.02660   0.03870   0.00000  -0.00300   0.00480
C3077     0.13000   0.02540   0.04900  -0.00200  -0.02800  -0.00310
C3078     0.15200   0.02480   0.05000   0.00000  -0.01500  -0.00010
N3079     0.04710   0.02330   0.03030   0.00200   0.00130   0.00030
N3080     0.05650   0.02450   0.03410   0.00140   0.00230  -0.00040
C3081     0.07500   0.02400   0.03410   0.00840   0.01140  -0.00570
C3082     0.09300   0.02660   0.03870   0.00000   0.00300  -0.00480
C3083     0.13000   0.02540   0.04900  -0.00200   0.02800   0.00310
C3084     0.15200   0.02480   0.05000   0.00000   0.01500   0.00010
N3085     0.02330   0.04710   0.03030   0.00200  -0.00030  -0.00130
N3086     0.02450   0.05650   0.03410   0.00140   0.00040  -0.00230
C3087     0.02400   0.07500   0.03410   0.00840   0.00570  -0.01140
C3088     0.02660   0.09300   0.03870   0.00000   0.00480  -0.00300
C3089     0.02540   0.13000   0.04900  -0.00200  -0.00310  -0.02800
C3090     0.02480   0.15200   0.05000   0.00000  -0.00010  -0.01500
N3091     0.02330   0.04710   0.03030   0.00200   0.00030   0.00130
N3092     0.02450   0.05650   0.03410   0.00140  -0.00040   0.00230
C3093     0.02400   0.07500   0.03410   0.00840  -0.00570   0.01140
C3094     0.02660   0.09300   0.03870   0.00000  -0.00480   0.00300
C3095     0.02540   0.13000   0.04900  -0.00200   0.00310   0.02800
C3096     0.02480   0.15200   0.05000   0.00000   0.00010   0.01500
N3097     0.04710   0.02330   0.03030  -0.00200  -0.00130   0.00030
N3098     0.05650   0.02450   0.03410  -0.00140  -0.00230  -0.00040
C3099     0.07500   0.02400   0.03410  -0.00840  -0.01140  -0.00570
C3100     0.09300   0.02660   0.03870   0.00000  -0.00300  -0.00480
C3101     0.13000   0.02540   0.04900   0.00200  -0.02800   0.00310
C3102     0.15200   0.02480   0.05000   0.00000  -0.01500   0.00010
N3103     0.04710   0.02330   0.03030  -0.00200   0.00130  -0.00030
N3104     0.05650   0.02450   0.03410  -0.00140   0.00230   0.00040
C3105     0.07500   0.02400   0.03410  -0.00840   0.01140   0.00570
C3106     0.09300   0.02660   0.03870   0.00000   0.00300   0.00480
C3107     0.13000   0.02540   0.04900   0.00200   0.02800  -0.00310
C3108     0.15200   0.02480   0.05000   0.00000   0.01500  -0.00010
Co3109    0.02490   0.02490   0.02650  -0.00028  -0.00071   0.00071
Co3110    0.02490   0.02490   0.02650  -0.00028   0.00071  -0.00071
Co3111    0.02490   0.02490   0.02650   0.00028  -0.00071  -0.00071
Co3112    0.02490   0.02490   0.02650   0.00028   0.00071   0.00071
C3113     0.01940   0.07600   0.04700   0.00000   0.00000   0.01000
C3114     0.02310   0.06200   0.03900   0.00000   0.00000   0.00900
C3115     0.02250   0.08400   0.04600   0.00000   0.00000   0.03100
C3116     0.02300   0.08800   0.05200   0.00000   0.00000  -0.00900
C3117     0.01940   0.07600   0.04700   0.00000   0.00000  -0.01000
C3118     0.02310   0.06200   0.03900   0.00000   0.00000  -0.00900
C3119     0.02250   0.08400   0.04600   0.00000   0.00000  -0.03100
C3120     0.02300   0.08800   0.05200   0.00000   0.00000   0.00900
C3121     0.07600   0.01940   0.04700   0.00000  -0.01000   0.00000
C3122     0.06200   0.02310   0.03900   0.00000  -0.00900   0.00000
C3123     0.08400   0.02250   0.04600   0.00000  -0.03100   0.00000
C3124     0.08800   0.02300   0.05200   0.00000   0.00900   0.00000
C3125     0.07600   0.01940   0.04700   0.00000   0.01000   0.00000
C3126     0.06200   0.02310   0.03900   0.00000   0.00900   0.00000
C3127     0.08400   0.02250   0.04600   0.00000   0.03100   0.00000
C3128     0.08800   0.02300   0.05200   0.00000  -0.00900   0.00000
N3129     0.02330   0.04710   0.03030  -0.00200  -0.00030   0.00130
N3130     0.02450   0.05650   0.03410  -0.00140   0.00040   0.00230
C3131     0.02400   0.07500   0.03410  -0.00840   0.00570   0.01140
C3132     0.02660   0.09300   0.03870   0.00000   0.00480   0.00300
C3133     0.02540   0.13000   0.04900   0.00200  -0.00310   0.02800
C3134     0.02480   0.15200   0.05000   0.00000  -0.00010   0.01500
N3135     0.02330   0.04710   0.03030  -0.00200   0.00030  -0.00130
N3136     0.02450   0.05650   0.03410  -0.00140  -0.00040  -0.00230
C3137     0.02400   0.07500   0.03410  -0.00840  -0.00570  -0.01140
C3138     0.02660   0.09300   0.03870   0.00000  -0.00480  -0.00300
C3139     0.02540   0.13000   0.04900   0.00200   0.00310  -0.02800
C3140     0.02480   0.15200   0.05000   0.00000   0.00010  -0.01500
N3141     0.04710   0.02330   0.03030   0.00200  -0.00130  -0.00030
N3142     0.05650   0.02450   0.03410   0.00140  -0.00230   0.00040
C3143     0.07500   0.02400   0.03410   0.00840  -0.01140   0.00570
C3144     0.09300   0.02660   0.03870   0.00000  -0.00300   0.00480
C3145     0.13000   0.02540   0.04900  -0.00200  -0.02800  -0.00310
C3146     0.15200   0.02480   0.05000   0.00000  -0.01500  -0.00010
N3147     0.04710   0.02330   0.03030   0.00200   0.00130   0.00030
N3148     0.05650   0.02450   0.03410   0.00140   0.00230  -0.00040
C3149     0.07500   0.02400   0.03410   0.00840   0.01140  -0.00570
C3150     0.09300   0.02660   0.03870   0.00000   0.00300  -0.00480
C3151     0.13000   0.02540   0.04900  -0.00200   0.02800   0.00310
C3152     0.15200   0.02480   0.05000   0.00000   0.01500   0.00010
N3153     0.02330   0.04710   0.03030   0.00200  -0.00030  -0.00130
N3154     0.02450   0.05650   0.03410   0.00140   0.00040  -0.00230
C3155     0.02400   0.07500   0.03410   0.00840   0.00570  -0.01140
C3156     0.02660   0.09300   0.03870   0.00000   0.00480  -0.00300
C3157     0.02540   0.13000   0.04900  -0.00200  -0.00310  -0.02800
C3158     0.02480   0.15200   0.05000   0.00000  -0.00010  -0.01500
N3159     0.02330   0.04710   0.03030   0.00200   0.00030   0.00130
N3160     0.02450   0.05650   0.03410   0.00140  -0.00040   0.00230
C3161     0.02400   0.07500   0.03410   0.00840  -0.00570   0.01140
C3162     0.02660   0.09300   0.03870   0.00000  -0.00480   0.00300
C3163     0.02540   0.13000   0.04900  -0.00200   0.00310   0.02800
C3164     0.02480   0.15200   0.05000   0.00000   0.00010   0.01500
N3165     0.04710   0.02330   0.03030  -0.00200  -0.00130   0.00030
N3166     0.05650   0.02450   0.03410  -0.00140  -0.00230  -0.00040
C3167     0.07500   0.02400   0.03410  -0.00840  -0.01140  -0.00570
C3168     0.09300   0.02660   0.03870   0.00000  -0.00300  -0.00480
C3169     0.13000   0.02540   0.04900   0.00200  -0.02800   0.00310
C3170     0.15200   0.02480   0.05000   0.00000  -0.01500   0.00010
N3171     0.04710   0.02330   0.03030  -0.00200   0.00130  -0.00030
N3172     0.05650   0.02450   0.03410  -0.00140   0.00230   0.00040
C3173     0.07500   0.02400   0.03410  -0.00840   0.01140   0.00570
C3174     0.09300   0.02660   0.03870   0.00000   0.00300   0.00480
C3175     0.13000   0.02540   0.04900   0.00200   0.02800  -0.00310
C3176     0.15200   0.02480   0.05000   0.00000   0.01500  -0.00010
Co3177    0.02490   0.02490   0.02650  -0.00028  -0.00071   0.00071
Co3178    0.02490   0.02490   0.02650  -0.00028   0.00071  -0.00071
Co3179    0.02490   0.02490   0.02650   0.00028  -0.00071  -0.00071
Co3180    0.02490   0.02490   0.02650   0.00028   0.00071   0.00071
C3181     0.01940   0.07600   0.04700   0.00000   0.00000   0.01000
C3182     0.02310   0.06200   0.03900   0.00000   0.00000   0.00900
C3183     0.02250   0.08400   0.04600   0.00000   0.00000   0.03100
C3184     0.02300   0.08800   0.05200   0.00000   0.00000  -0.00900
C3185     0.01940   0.07600   0.04700   0.00000   0.00000  -0.01000
C3186     0.02310   0.06200   0.03900   0.00000   0.00000  -0.00900
C3187     0.02250   0.08400   0.04600   0.00000   0.00000  -0.03100
C3188     0.02300   0.08800   0.05200   0.00000   0.00000   0.00900
C3189     0.07600   0.01940   0.04700   0.00000  -0.01000   0.00000
C3190     0.06200   0.02310   0.03900   0.00000  -0.00900   0.00000
C3191     0.08400   0.02250   0.04600   0.00000  -0.03100   0.00000
C3192     0.08800   0.02300   0.05200   0.00000   0.00900   0.00000
C3193     0.07600   0.01940   0.04700   0.00000   0.01000   0.00000
C3194     0.06200   0.02310   0.03900   0.00000   0.00900   0.00000
C3195     0.08400   0.02250   0.04600   0.00000   0.03100   0.00000
C3196     0.08800   0.02300   0.05200   0.00000  -0.00900   0.00000
N3197     0.02330   0.04710   0.03030  -0.00200  -0.00030   0.00130
N3198     0.02450   0.05650   0.03410  -0.00140   0.00040   0.00230
C3199     0.02400   0.07500   0.03410  -0.00840   0.00570   0.01140
C3200     0.02660   0.09300   0.03870   0.00000   0.00480   0.00300
C3201     0.02540   0.13000   0.04900   0.00200  -0.00310   0.02800
C3202     0.02480   0.15200   0.05000   0.00000  -0.00010   0.01500
N3203     0.02330   0.04710   0.03030  -0.00200   0.00030  -0.00130
N3204     0.02450   0.05650   0.03410  -0.00140  -0.00040  -0.00230
C3205     0.02400   0.07500   0.03410  -0.00840  -0.00570  -0.01140
C3206     0.02660   0.09300   0.03870   0.00000  -0.00480  -0.00300
C3207     0.02540   0.13000   0.04900   0.00200   0.00310  -0.02800
C3208     0.02480   0.15200   0.05000   0.00000   0.00010  -0.01500
N3209     0.04710   0.02330   0.03030   0.00200  -0.00130  -0.00030
N3210     0.05650   0.02450   0.03410   0.00140  -0.00230   0.00040
C3211     0.07500   0.02400   0.03410   0.00840  -0.01140   0.00570
C3212     0.09300   0.02660   0.03870   0.00000  -0.00300   0.00480
C3213     0.13000   0.02540   0.04900  -0.00200  -0.02800  -0.00310
C3214     0.15200   0.02480   0.05000   0.00000  -0.01500  -0.00010
N3215     0.04710   0.02330   0.03030   0.00200   0.00130   0.00030
N3216     0.05650   0.02450   0.03410   0.00140   0.00230  -0.00040
C3217     0.07500   0.02400   0.03410   0.00840   0.01140  -0.00570
C3218     0.09300   0.02660   0.03870   0.00000   0.00300  -0.00480
C3219     0.13000   0.02540   0.04900  -0.00200   0.02800   0.00310
C3220     0.15200   0.02480   0.05000   0.00000   0.01500   0.00010
N3221     0.02330   0.04710   0.03030   0.00200  -0.00030  -0.00130
N3222     0.02450   0.05650   0.03410   0.00140   0.00040  -0.00230
C3223     0.02400   0.07500   0.03410   0.00840   0.00570  -0.01140
C3224     0.02660   0.09300   0.03870   0.00000   0.00480  -0.00300
C3225     0.02540   0.13000   0.04900  -0.00200  -0.00310  -0.02800
C3226     0.02480   0.15200   0.05000   0.00000  -0.00010  -0.01500
N3227     0.02330   0.04710   0.03030   0.00200   0.00030   0.00130
N3228     0.02450   0.05650   0.03410   0.00140  -0.00040   0.00230
C3229     0.02400   0.07500   0.03410   0.00840  -0.00570   0.01140
C3230     0.02660   0.09300   0.03870   0.00000  -0.00480   0.00300
C3231     0.02540   0.13000   0.04900  -0.00200   0.00310   0.02800
C3232     0.02480   0.15200   0.05000   0.00000   0.00010   0.01500
N3233     0.04710   0.02330   0.03030  -0.00200  -0.00130   0.00030
N3234     0.05650   0.02450   0.03410  -0.00140  -0.00230  -0.00040
C3235     0.07500   0.02400   0.03410  -0.00840  -0.01140  -0.00570
C3236     0.09300   0.02660   0.03870   0.00000  -0.00300  -0.00480
C3237     0.13000   0.02540   0.04900   0.00200  -0.02800   0.00310
C3238     0.15200   0.02480   0.05000   0.00000  -0.01500   0.00010
N3239     0.04710   0.02330   0.03030  -0.00200   0.00130  -0.00030
N3240     0.05650   0.02450   0.03410  -0.00140   0.00230   0.00040
C3241     0.07500   0.02400   0.03410  -0.00840   0.01140   0.00570
C3242     0.09300   0.02660   0.03870   0.00000   0.00300   0.00480
C3243     0.13000   0.02540   0.04900   0.00200   0.02800  -0.00310
C3244     0.15200   0.02480   0.05000   0.00000   0.01500  -0.00010
Co3245    0.02490   0.02490   0.02650  -0.00028  -0.00071   0.00071
Co3246    0.02490   0.02490   0.02650  -0.00028   0.00071  -0.00071
Co3247    0.02490   0.02490   0.02650   0.00028  -0.00071  -0.00071
Co3248    0.02490   0.02490   0.02650   0.00028   0.00071   0.00071
C3249     0.01940   0.07600   0.04700   0.00000   0.00000   0.01000
C3250     0.02310   0.06200   0.03900   0.00000   0.00000   0.00900
C3251     0.02250   0.08400   0.04600   0.00000   0.00000   0.03100
C3252     0.02300   0.08800   0.05200   0.00000   0.00000  -0.00900
C3253     0.01940   0.07600   0.04700   0.00000   0.00000  -0.01000
C3254     0.02310   0.06200   0.03900   0.00000   0.00000  -0.00900
C3255     0.02250   0.08400   0.04600   0.00000   0.00000  -0.03100
C3256     0.02300   0.08800   0.05200   0.00000   0.00000   0.00900
C3257     0.07600   0.01940   0.04700   0.00000  -0.01000   0.00000
C3258     0.06200   0.02310   0.03900   0.00000  -0.00900   0.00000
C3259     0.08400   0.02250   0.04600   0.00000  -0.03100   0.00000
C3260     0.08800   0.02300   0.05200   0.00000   0.00900   0.00000
C3261     0.07600   0.01940   0.04700   0.00000   0.01000   0.00000
C3262     0.06200   0.02310   0.03900   0.00000   0.00900   0.00000
C3263     0.08400   0.02250   0.04600   0.00000   0.03100   0.00000
C3264     0.08800   0.02300   0.05200   0.00000  -0.00900   0.00000
N3265     0.02330   0.04710   0.03030  -0.00200  -0.00030   0.00130
N3266     0.02450   0.05650   0.03410  -0.00140   0.00040   0.00230
C3267     0.02400   0.07500   0.03410  -0.00840   0.00570   0.01140
C3268     0.02660   0.09300   0.03870   0.00000   0.00480   0.00300
C3269     0.02540   0.13000   0.04900   0.00200  -0.00310   0.02800
C3270     0.02480   0.15200   0.05000   0.00000  -0.00010   0.01500
N3271     0.02330   0.04710   0.03030  -0.00200   0.00030  -0.00130
N3272     0.02450   0.05650   0.03410  -0.00140  -0.00040  -0.00230
C3273     0.02400   0.07500   0.03410  -0.00840  -0.00570  -0.01140
C3274     0.02660   0.09300   0.03870   0.00000  -0.00480  -0.00300
C3275     0.02540   0.13000   0.04900   0.00200   0.00310  -0.02800
C3276     0.02480   0.15200   0.05000   0.00000   0.00010  -0.01500
N3277     0.04710   0.02330   0.03030   0.00200  -0.00130  -0.00030
N3278     0.05650   0.02450   0.03410   0.00140  -0.00230   0.00040
C3279     0.07500   0.02400   0.03410   0.00840  -0.01140   0.00570
C3280     0.09300   0.02660   0.03870   0.00000  -0.00300   0.00480
C3281     0.13000   0.02540   0.04900  -0.00200  -0.02800  -0.00310
C3282     0.15200   0.02480   0.05000   0.00000  -0.01500  -0.00010
N3283     0.04710   0.02330   0.03030   0.00200   0.00130   0.00030
N3284     0.05650   0.02450   0.03410   0.00140   0.00230  -0.00040
C3285     0.07500   0.02400   0.03410   0.00840   0.01140  -0.00570
C3286     0.09300   0.02660   0.03870   0.00000   0.00300  -0.00480
C3287     0.13000   0.02540   0.04900  -0.00200   0.02800   0.00310
C3288     0.15200   0.02480   0.05000   0.00000   0.01500   0.00010
N3289     0.02330   0.04710   0.03030   0.00200  -0.00030  -0.00130
N3290     0.02450   0.05650   0.03410   0.00140   0.00040  -0.00230
C3291     0.02400   0.07500   0.03410   0.00840   0.00570  -0.01140
C3292     0.02660   0.09300   0.03870   0.00000   0.00480  -0.00300
C3293     0.02540   0.13000   0.04900  -0.00200  -0.00310  -0.02800
C3294     0.02480   0.15200   0.05000   0.00000  -0.00010  -0.01500
N3295     0.02330   0.04710   0.03030   0.00200   0.00030   0.00130
N3296     0.02450   0.05650   0.03410   0.00140  -0.00040   0.00230
C3297     0.02400   0.07500   0.03410   0.00840  -0.00570   0.01140
C3298     0.02660   0.09300   0.03870   0.00000  -0.00480   0.00300
C3299     0.02540   0.13000   0.04900  -0.00200   0.00310   0.02800
C3300     0.02480   0.15200   0.05000   0.00000   0.00010   0.01500
N3301     0.04710   0.02330   0.03030  -0.00200  -0.00130   0.00030
N3302     0.05650   0.02450   0.03410  -0.00140  -0.00230  -0.00040
C3303     0.07500   0.02400   0.03410  -0.00840  -0.01140  -0.00570
C3304     0.09300   0.02660   0.03870   0.00000  -0.00300  -0.00480
C3305     0.13000   0.02540   0.04900   0.00200  -0.02800   0.00310
C3306     0.15200   0.02480   0.05000   0.00000  -0.01500   0.00010
N3307     0.04710   0.02330   0.03030  -0.00200   0.00130  -0.00030
N3308     0.05650   0.02450   0.03410  -0.00140   0.00230   0.00040
C3309     0.07500   0.02400   0.03410  -0.00840   0.01140   0.00570
C3310     0.09300   0.02660   0.03870   0.00000   0.00300   0.00480
C3311     0.13000   0.02540   0.04900   0.00200   0.02800  -0.00310
C3312     0.15200   0.02480   0.05000   0.00000   0.01500  -0.00010
Co3313    0.02490   0.02490   0.02650  -0.00028  -0.00071   0.00071
Co3314    0.02490   0.02490   0.02650  -0.00028   0.00071  -0.00071
Co3315    0.02490   0.02490   0.02650   0.00028  -0.00071  -0.00071
Co3316    0.02490   0.02490   0.02650   0.00028   0.00071   0.00071
C3317     0.01940   0.07600   0.04700   0.00000   0.00000   0.01000
C3318     0.02310   0.06200   0.03900   0.00000   0.00000   0.00900
C3319     0.02250   0.08400   0.04600   0.00000   0.00000   0.03100
C3320     0.02300   0.08800   0.05200   0.00000   0.00000  -0.00900
C3321     0.01940   0.07600   0.04700   0.00000   0.00000  -0.01000
C3322     0.02310   0.06200   0.03900   0.00000   0.00000  -0.00900
C3323     0.02250   0.08400   0.04600   0.00000   0.00000  -0.03100
C3324     0.02300   0.08800   0.05200   0.00000   0.00000   0.00900
C3325     0.07600   0.01940   0.04700   0.00000  -0.01000   0.00000
C3326     0.06200   0.02310   0.03900   0.00000  -0.00900   0.00000
C3327     0.08400   0.02250   0.04600   0.00000  -0.03100   0.00000
C3328     0.08800   0.02300   0.05200   0.00000   0.00900   0.00000
C3329     0.07600   0.01940   0.04700   0.00000   0.01000   0.00000
C3330     0.06200   0.02310   0.03900   0.00000   0.00900   0.00000
C3331     0.08400   0.02250   0.04600   0.00000   0.03100   0.00000
C3332     0.08800   0.02300   0.05200   0.00000  -0.00900   0.00000
N3333     0.02330   0.04710   0.03030  -0.00200  -0.00030   0.00130
N3334     0.02450   0.05650   0.03410  -0.00140   0.00040   0.00230
C3335     0.02400   0.07500   0.03410  -0.00840   0.00570   0.01140
C3336     0.02660   0.09300   0.03870   0.00000   0.00480   0.00300
C3337     0.02540   0.13000   0.04900   0.00200  -0.00310   0.02800
C3338     0.02480   0.15200   0.05000   0.00000  -0.00010   0.01500
N3339     0.02330   0.04710   0.03030  -0.00200   0.00030  -0.00130
N3340     0.02450   0.05650   0.03410  -0.00140  -0.00040  -0.00230
C3341     0.02400   0.07500   0.03410  -0.00840  -0.00570  -0.01140
C3342     0.02660   0.09300   0.03870   0.00000  -0.00480  -0.00300
C3343     0.02540   0.13000   0.04900   0.00200   0.00310  -0.02800
C3344     0.02480   0.15200   0.05000   0.00000   0.00010  -0.01500
N3345     0.04710   0.02330   0.03030   0.00200  -0.00130  -0.00030
N3346     0.05650   0.02450   0.03410   0.00140  -0.00230   0.00040
C3347     0.07500   0.02400   0.03410   0.00840  -0.01140   0.00570
C3348     0.09300   0.02660   0.03870   0.00000  -0.00300   0.00480
C3349     0.13000   0.02540   0.04900  -0.00200  -0.02800  -0.00310
C3350     0.15200   0.02480   0.05000   0.00000  -0.01500  -0.00010
N3351     0.04710   0.02330   0.03030   0.00200   0.00130   0.00030
N3352     0.05650   0.02450   0.03410   0.00140   0.00230  -0.00040
C3353     0.07500   0.02400   0.03410   0.00840   0.01140  -0.00570
C3354     0.09300   0.02660   0.03870   0.00000   0.00300  -0.00480
C3355     0.13000   0.02540   0.04900  -0.00200   0.02800   0.00310
C3356     0.15200   0.02480   0.05000   0.00000   0.01500   0.00010
N3357     0.02330   0.04710   0.03030   0.00200  -0.00030  -0.00130
N3358     0.02450   0.05650   0.03410   0.00140   0.00040  -0.00230
C3359     0.02400   0.07500   0.03410   0.00840   0.00570  -0.01140
C3360     0.02660   0.09300   0.03870   0.00000   0.00480  -0.00300
C3361     0.02540   0.13000   0.04900  -0.00200  -0.00310  -0.02800
C3362     0.02480   0.15200   0.05000   0.00000  -0.00010  -0.01500
N3363     0.02330   0.04710   0.03030   0.00200   0.00030   0.00130
N3364     0.02450   0.05650   0.03410   0.00140  -0.00040   0.00230
C3365     0.02400   0.07500   0.03410   0.00840  -0.00570   0.01140
C3366     0.02660   0.09300   0.03870   0.00000  -0.00480   0.00300
C3367     0.02540   0.13000   0.04900  -0.00200   0.00310   0.02800
C3368     0.02480   0.15200   0.05000   0.00000   0.00010   0.01500
N3369     0.04710   0.02330   0.03030  -0.00200  -0.00130   0.00030
N3370     0.05650   0.02450   0.03410  -0.00140  -0.00230  -0.00040
C3371     0.07500   0.02400   0.03410  -0.00840  -0.01140  -0.00570
C3372     0.09300   0.02660   0.03870   0.00000  -0.00300  -0.00480
C3373     0.13000   0.02540   0.04900   0.00200  -0.02800   0.00310
C3374     0.15200   0.02480   0.05000   0.00000  -0.01500   0.00010
N3375     0.04710   0.02330   0.03030  -0.00200   0.00130  -0.00030
N3376     0.05650   0.02450   0.03410  -0.00140   0.00230   0.00040
C3377     0.07500   0.02400   0.03410  -0.00840   0.01140   0.00570
C3378     0.09300   0.02660   0.03870   0.00000   0.00300   0.00480
C3379     0.13000   0.02540   0.04900   0.00200   0.02800  -0.00310
C3380     0.15200   0.02480   0.05000   0.00000   0.01500  -0.00010
Co3381    0.02490   0.02490   0.02650  -0.00028  -0.00071   0.00071
Co3382    0.02490   0.02490   0.02650  -0.00028   0.00071  -0.00071
Co3383    0.02490   0.02490   0.02650   0.00028  -0.00071  -0.00071
Co3384    0.02490   0.02490   0.02650   0.00028   0.00071   0.00071
C3385     0.01940   0.07600   0.04700   0.00000   0.00000   0.01000
C3386     0.02310   0.06200   0.03900   0.00000   0.00000   0.00900
C3387     0.02250   0.08400   0.04600   0.00000   0.00000   0.03100
C3388     0.02300   0.08800   0.05200   0.00000   0.00000  -0.00900
C3389     0.01940   0.07600   0.04700   0.00000   0.00000  -0.01000
C3390     0.02310   0.06200   0.03900   0.00000   0.00000  -0.00900
C3391     0.02250   0.08400   0.04600   0.00000   0.00000  -0.03100
C3392     0.02300   0.08800   0.05200   0.00000   0.00000   0.00900
C3393     0.07600   0.01940   0.04700   0.00000  -0.01000   0.00000
C3394     0.06200   0.02310   0.03900   0.00000  -0.00900   0.00000
C3395     0.08400   0.02250   0.04600   0.00000  -0.03100   0.00000
C3396     0.08800   0.02300   0.05200   0.00000   0.00900   0.00000
C3397     0.07600   0.01940   0.04700   0.00000   0.01000   0.00000
C3398     0.06200   0.02310   0.03900   0.00000   0.00900   0.00000
C3399     0.08400   0.02250   0.04600   0.00000   0.03100   0.00000
C3400     0.08800   0.02300   0.05200   0.00000  -0.00900   0.00000
N3401     0.02330   0.04710   0.03030  -0.00200  -0.00030   0.00130
N3402     0.02450   0.05650   0.03410  -0.00140   0.00040   0.00230
C3403     0.02400   0.07500   0.03410  -0.00840   0.00570   0.01140
C3404     0.02660   0.09300   0.03870   0.00000   0.00480   0.00300
C3405     0.02540   0.13000   0.04900   0.00200  -0.00310   0.02800
C3406     0.02480   0.15200   0.05000   0.00000  -0.00010   0.01500
N3407     0.02330   0.04710   0.03030  -0.00200   0.00030  -0.00130
N3408     0.02450   0.05650   0.03410  -0.00140  -0.00040  -0.00230
C3409     0.02400   0.07500   0.03410  -0.00840  -0.00570  -0.01140
C3410     0.02660   0.09300   0.03870   0.00000  -0.00480  -0.00300
C3411     0.02540   0.13000   0.04900   0.00200   0.00310  -0.02800
C3412     0.02480   0.15200   0.05000   0.00000   0.00010  -0.01500
N3413     0.04710   0.02330   0.03030   0.00200  -0.00130  -0.00030
N3414     0.05650   0.02450   0.03410   0.00140  -0.00230   0.00040
C3415     0.07500   0.02400   0.03410   0.00840  -0.01140   0.00570
C3416     0.09300   0.02660   0.03870   0.00000  -0.00300   0.00480
C3417     0.13000   0.02540   0.04900  -0.00200  -0.02800  -0.00310
C3418     0.15200   0.02480   0.05000   0.00000  -0.01500  -0.00010
N3419     0.04710   0.02330   0.03030   0.00200   0.00130   0.00030
N3420     0.05650   0.02450   0.03410   0.00140   0.00230  -0.00040
C3421     0.07500   0.02400   0.03410   0.00840   0.01140  -0.00570
C3422     0.09300   0.02660   0.03870   0.00000   0.00300  -0.00480
C3423     0.13000   0.02540   0.04900  -0.00200   0.02800   0.00310
C3424     0.15200   0.02480   0.05000   0.00000   0.01500   0.00010
N3425     0.02330   0.04710   0.03030   0.00200  -0.00030  -0.00130
N3426     0.02450   0.05650   0.03410   0.00140   0.00040  -0.00230
C3427     0.02400   0.07500   0.03410   0.00840   0.00570  -0.01140
C3428     0.02660   0.09300   0.03870   0.00000   0.00480  -0.00300
C3429     0.02540   0.13000   0.04900  -0.00200  -0.00310  -0.02800
C3430     0.02480   0.15200   0.05000   0.00000  -0.00010  -0.01500
N3431     0.02330   0.04710   0.03030   0.00200   0.00030   0.00130
N3432     0.02450   0.05650   0.03410   0.00140  -0.00040   0.00230
C3433     0.02400   0.07500   0.03410   0.00840  -0.00570   0.01140
C3434     0.02660   0.09300   0.03870   0.00000  -0.00480   0.00300
C3435     0.02540   0.13000   0.04900  -0.00200   0.00310   0.02800
C3436     0.02480   0.15200   0.05000   0.00000   0.00010   0.01500
N3437     0.04710   0.02330   0.03030  -0.00200  -0.00130   0.00030
N3438     0.05650   0.02450   0.03410  -0.00140  -0.00230  -0.00040
C3439     0.07500   0.02400   0.03410  -0.00840  -0.01140  -0.00570
C3440     0.09300   0.02660   0.03870   0.00000  -0.00300  -0.00480
C3441     0.13000   0.02540   0.04900   0.00200  -0.02800   0.00310
C3442     0.15200   0.02480   0.05000   0.00000  -0.01500   0.00010
N3443     0.04710   0.02330   0.03030  -0.00200   0.00130  -0.00030
N3444     0.05650   0.02450   0.03410  -0.00140   0.00230   0.00040
C3445     0.07500   0.02400   0.03410  -0.00840   0.01140   0.00570
C3446     0.09300   0.02660   0.03870   0.00000   0.00300   0.00480
C3447     0.13000   0.02540   0.04900   0.00200   0.02800  -0.00310
C3448     0.15200   0.02480   0.05000   0.00000   0.01500  -0.00010
Co3449    0.02490   0.02490   0.02650  -0.00028  -0.00071   0.00071
Co3450    0.02490   0.02490   0.02650  -0.00028   0.00071  -0.00071
Co3451    0.02490   0.02490   0.02650   0.00028  -0.00071  -0.00071
Co3452    0.02490   0.02490   0.02650   0.00028   0.00071   0.00071
C3453     0.01940   0.07600   0.04700   0.00000   0.00000   0.01000
C3454     0.02310   0.06200   0.03900   0.00000   0.00000   0.00900
C3455     0.02250   0.08400   0.04600   0.00000   0.00000   0.03100
C3456     0.02300   0.08800   0.05200   0.00000   0.00000  -0.00900
C3457     0.01940   0.07600   0.04700   0.00000   0.00000  -0.01000
C3458     0.02310   0.06200   0.03900   0.00000   0.00000  -0.00900
C3459     0.02250   0.08400   0.04600   0.00000   0.00000  -0.03100
C3460     0.02300   0.08800   0.05200   0.00000   0.00000   0.00900
C3461     0.07600   0.01940   0.04700   0.00000  -0.01000   0.00000
C3462     0.06200   0.02310   0.03900   0.00000  -0.00900   0.00000
C3463     0.08400   0.02250   0.04600   0.00000  -0.03100   0.00000
C3464     0.08800   0.02300   0.05200   0.00000   0.00900   0.00000
C3465     0.07600   0.01940   0.04700   0.00000   0.01000   0.00000
C3466     0.06200   0.02310   0.03900   0.00000   0.00900   0.00000
C3467     0.08400   0.02250   0.04600   0.00000   0.03100   0.00000
C3468     0.08800   0.02300   0.05200   0.00000  -0.00900   0.00000
N3469     0.02330   0.04710   0.03030  -0.00200  -0.00030   0.00130
N3470     0.02450   0.05650   0.03410  -0.00140   0.00040   0.00230
C3471     0.02400   0.07500   0.03410  -0.00840   0.00570   0.01140
C3472     0.02660   0.09300   0.03870   0.00000   0.00480   0.00300
C3473     0.02540   0.13000   0.04900   0.00200  -0.00310   0.02800
C3474     0.02480   0.15200   0.05000   0.00000  -0.00010   0.01500
N3475     0.02330   0.04710   0.03030  -0.00200   0.00030  -0.00130
N3476     0.02450   0.05650   0.03410  -0.00140  -0.00040  -0.00230
C3477     0.02400   0.07500   0.03410  -0.00840  -0.00570  -0.01140
C3478     0.02660   0.09300   0.03870   0.00000  -0.00480  -0.00300
C3479     0.02540   0.13000   0.04900   0.00200   0.00310  -0.02800
C3480     0.02480   0.15200   0.05000   0.00000   0.00010  -0.01500
N3481     0.04710   0.02330   0.03030   0.00200  -0.00130  -0.00030
N3482     0.05650   0.02450   0.03410   0.00140  -0.00230   0.00040
C3483     0.07500   0.02400   0.03410   0.00840  -0.01140   0.00570
C3484     0.09300   0.02660   0.03870   0.00000  -0.00300   0.00480
C3485     0.13000   0.02540   0.04900  -0.00200  -0.02800  -0.00310
C3486     0.15200   0.02480   0.05000   0.00000  -0.01500  -0.00010
N3487     0.04710   0.02330   0.03030   0.00200   0.00130   0.00030
N3488     0.05650   0.02450   0.03410   0.00140   0.00230  -0.00040
C3489     0.07500   0.02400   0.03410   0.00840   0.01140  -0.00570
C3490     0.09300   0.02660   0.03870   0.00000   0.00300  -0.00480
C3491     0.13000   0.02540   0.04900  -0.00200   0.02800   0.00310
C3492     0.15200   0.02480   0.05000   0.00000   0.01500   0.00010
N3493     0.02330   0.04710   0.03030   0.00200  -0.00030  -0.00130
N3494     0.02450   0.05650   0.03410   0.00140   0.00040  -0.00230
C3495     0.02400   0.07500   0.03410   0.00840   0.00570  -0.01140
C3496     0.02660   0.09300   0.03870   0.00000   0.00480  -0.00300
C3497     0.02540   0.13000   0.04900  -0.00200  -0.00310  -0.02800
C3498     0.02480   0.15200   0.05000   0.00000  -0.00010  -0.01500
N3499     0.02330   0.04710   0.03030   0.00200   0.00030   0.00130
N3500     0.02450   0.05650   0.03410   0.00140  -0.00040   0.00230
C3501     0.02400   0.07500   0.03410   0.00840  -0.00570   0.01140
C3502     0.02660   0.09300   0.03870   0.00000  -0.00480   0.00300
C3503     0.02540   0.13000   0.04900  -0.00200   0.00310   0.02800
C3504     0.02480   0.15200   0.05000   0.00000   0.00010   0.01500
N3505     0.04710   0.02330   0.03030  -0.00200  -0.00130   0.00030
N3506     0.05650   0.02450   0.03410  -0.00140  -0.00230  -0.00040
C3507     0.07500   0.02400   0.03410  -0.00840  -0.01140  -0.00570
C3508     0.09300   0.02660   0.03870   0.00000  -0.00300  -0.00480
C3509     0.13000   0.02540   0.04900   0.00200  -0.02800   0.00310
C3510     0.15200   0.02480   0.05000   0.00000  -0.01500   0.00010
N3511     0.04710   0.02330   0.03030  -0.00200   0.00130  -0.00030
N3512     0.05650   0.02450   0.03410  -0.00140   0.00230   0.00040
C3513     0.07500   0.02400   0.03410  -0.00840   0.01140   0.00570
C3514     0.09300   0.02660   0.03870   0.00000   0.00300   0.00480
C3515     0.13000   0.02540   0.04900   0.00200   0.02800  -0.00310
C3516     0.15200   0.02480   0.05000   0.00000   0.01500  -0.00010
Co3517    0.02490   0.02490   0.02650  -0.00028  -0.00071   0.00071
Co3518    0.02490   0.02490   0.02650  -0.00028   0.00071  -0.00071
Co3519    0.02490   0.02490   0.02650   0.00028  -0.00071  -0.00071
Co3520    0.02490   0.02490   0.02650   0.00028   0.00071   0.00071
C3521     0.01940   0.07600   0.04700   0.00000   0.00000   0.01000
C3522     0.02310   0.06200   0.03900   0.00000   0.00000   0.00900
C3523     0.02250   0.08400   0.04600   0.00000   0.00000   0.03100
C3524     0.02300   0.08800   0.05200   0.00000   0.00000  -0.00900
C3525     0.01940   0.07600   0.04700   0.00000   0.00000  -0.01000
C3526     0.02310   0.06200   0.03900   0.00000   0.00000  -0.00900
C3527     0.02250   0.08400   0.04600   0.00000   0.00000  -0.03100
C3528     0.02300   0.08800   0.05200   0.00000   0.00000   0.00900
C3529     0.07600   0.01940   0.04700   0.00000  -0.01000   0.00000
C3530     0.06200   0.02310   0.03900   0.00000  -0.00900   0.00000
C3531     0.08400   0.02250   0.04600   0.00000  -0.03100   0.00000
C3532     0.08800   0.02300   0.05200   0.00000   0.00900   0.00000
C3533     0.07600   0.01940   0.04700   0.00000   0.01000   0.00000
C3534     0.06200   0.02310   0.03900   0.00000   0.00900   0.00000
C3535     0.08400   0.02250   0.04600   0.00000   0.03100   0.00000
C3536     0.08800   0.02300   0.05200   0.00000  -0.00900   0.00000
N3537     0.02330   0.04710   0.03030  -0.00200  -0.00030   0.00130
N3538     0.02450   0.05650   0.03410  -0.00140   0.00040   0.00230
C3539     0.02400   0.07500   0.03410  -0.00840   0.00570   0.01140
C3540     0.02660   0.09300   0.03870   0.00000   0.00480   0.00300
C3541     0.02540   0.13000   0.04900   0.00200  -0.00310   0.02800
C3542     0.02480   0.15200   0.05000   0.00000  -0.00010   0.01500
N3543     0.02330   0.04710   0.03030  -0.00200   0.00030  -0.00130
N3544     0.02450   0.05650   0.03410  -0.00140  -0.00040  -0.00230
C3545     0.02400   0.07500   0.03410  -0.00840  -0.00570  -0.01140
C3546     0.02660   0.09300   0.03870   0.00000  -0.00480  -0.00300
C3547     0.02540   0.13000   0.04900   0.00200   0.00310  -0.02800
C3548     0.02480   0.15200   0.05000   0.00000   0.00010  -0.01500
N3549     0.04710   0.02330   0.03030   0.00200  -0.00130  -0.00030
N3550     0.05650   0.02450   0.03410   0.00140  -0.00230   0.00040
C3551     0.07500   0.02400   0.03410   0.00840  -0.01140   0.00570
C3552     0.09300   0.02660   0.03870   0.00000  -0.00300   0.00480
C3553     0.13000   0.02540   0.04900  -0.00200  -0.02800  -0.00310
C3554     0.15200   0.02480   0.05000   0.00000  -0.01500  -0.00010
N3555     0.04710   0.02330   0.03030   0.00200   0.00130   0.00030
N3556     0.05650   0.02450   0.03410   0.00140   0.00230  -0.00040
C3557     0.07500   0.02400   0.03410   0.00840   0.01140  -0.00570
C3558     0.09300   0.02660   0.03870   0.00000   0.00300  -0.00480
C3559     0.13000   0.02540   0.04900  -0.00200   0.02800   0.00310
C3560     0.15200   0.02480   0.05000   0.00000   0.01500   0.00010
N3561     0.02330   0.04710   0.03030   0.00200  -0.00030  -0.00130
N3562     0.02450   0.05650   0.03410   0.00140   0.00040  -0.00230
C3563     0.02400   0.07500   0.03410   0.00840   0.00570  -0.01140
C3564     0.02660   0.09300   0.03870   0.00000   0.00480  -0.00300
C3565     0.02540   0.13000   0.04900  -0.00200  -0.00310  -0.02800
C3566     0.02480   0.15200   0.05000   0.00000  -0.00010  -0.01500
N3567     0.02330   0.04710   0.03030   0.00200   0.00030   0.00130
N3568     0.02450   0.05650   0.03410   0.00140  -0.00040   0.00230
C3569     0.02400   0.07500   0.03410   0.00840  -0.00570   0.01140
C3570     0.02660   0.09300   0.03870   0.00000  -0.00480   0.00300
C3571     0.02540   0.13000   0.04900  -0.00200   0.00310   0.02800
C3572     0.02480   0.15200   0.05000   0.00000   0.00010   0.01500
N3573     0.04710   0.02330   0.03030  -0.00200  -0.00130   0.00030
N3574     0.05650   0.02450   0.03410  -0.00140  -0.00230  -0.00040
C3575     0.07500   0.02400   0.03410  -0.00840  -0.01140  -0.00570
C3576     0.09300   0.02660   0.03870   0.00000  -0.00300  -0.00480
C3577     0.13000   0.02540   0.04900   0.00200  -0.02800   0.00310
C3578     0.15200   0.02480   0.05000   0.00000  -0.01500   0.00010
N3579     0.04710   0.02330   0.03030  -0.00200   0.00130  -0.00030
N3580     0.05650   0.02450   0.03410  -0.00140   0.00230   0.00040
C3581     0.07500   0.02400   0.03410  -0.00840   0.01140   0.00570
C3582     0.09300   0.02660   0.03870   0.00000   0.00300   0.00480
C3583     0.13000   0.02540   0.04900   0.00200   0.02800  -0.00310
C3584     0.15200   0.02480   0.05000   0.00000   0.01500  -0.00010
Co3585    0.02490   0.02490   0.02650  -0.00028  -0.00071   0.00071
Co3586    0.02490   0.02490   0.02650  -0.00028   0.00071  -0.00071
Co3587    0.02490   0.02490   0.02650   0.00028  -0.00071  -0.00071
Co3588    0.02490   0.02490   0.02650   0.00028   0.00071   0.00071
C3589     0.01940   0.07600   0.04700   0.00000   0.00000   0.01000
C3590     0.02310   0.06200   0.03900   0.00000   0.00000   0.00900
C3591     0.02250   0.08400   0.04600   0.00000   0.00000   0.03100
C3592     0.02300   0.08800   0.05200   0.00000   0.00000  -0.00900
C3593     0.01940   0.07600   0.04700   0.00000   0.00000  -0.01000
C3594     0.02310   0.06200   0.03900   0.00000   0.00000  -0.00900
C3595     0.02250   0.08400   0.04600   0.00000   0.00000  -0.03100
C3596     0.02300   0.08800   0.05200   0.00000   0.00000   0.00900
C3597     0.07600   0.01940   0.04700   0.00000  -0.01000   0.00000
C3598     0.06200   0.02310   0.03900   0.00000  -0.00900   0.00000
C3599     0.08400   0.02250   0.04600   0.00000  -0.03100   0.00000
C3600     0.08800   0.02300   0.05200   0.00000   0.00900   0.00000
C3601     0.07600   0.01940   0.04700   0.00000   0.01000   0.00000
C3602     0.06200   0.02310   0.03900   0.00000   0.00900   0.00000
C3603     0.08400   0.02250   0.04600   0.00000   0.03100   0.00000
C3604     0.08800   0.02300   0.05200   0.00000  -0.00900   0.00000
N3605     0.02330   0.04710   0.03030  -0.00200  -0.00030   0.00130
N3606     0.02450   0.05650   0.03410  -0.00140   0.00040   0.00230
C3607     0.02400   0.07500   0.03410  -0.00840   0.00570   0.01140
C3608     0.02660   0.09300   0.03870   0.00000   0.00480   0.00300
C3609     0.02540   0.13000   0.04900   0.00200  -0.00310   0.02800
C3610     0.02480   0.15200   0.05000   0.00000  -0.00010   0.01500
N3611     0.02330   0.04710   0.03030  -0.00200   0.00030  -0.00130
N3612     0.02450   0.05650   0.03410  -0.00140  -0.00040  -0.00230
C3613     0.02400   0.07500   0.03410  -0.00840  -0.00570  -0.01140
C3614     0.02660   0.09300   0.03870   0.00000  -0.00480  -0.00300
C3615     0.02540   0.13000   0.04900   0.00200   0.00310  -0.02800
C3616     0.02480   0.15200   0.05000   0.00000   0.00010  -0.01500
N3617     0.04710   0.02330   0.03030   0.00200  -0.00130  -0.00030
N3618     0.05650   0.02450   0.03410   0.00140  -0.00230   0.00040
C3619     0.07500   0.02400   0.03410   0.00840  -0.01140   0.00570
C3620     0.09300   0.02660   0.03870   0.00000  -0.00300   0.00480
C3621     0.13000   0.02540   0.04900  -0.00200  -0.02800  -0.00310
C3622     0.15200   0.02480   0.05000   0.00000  -0.01500  -0.00010
N3623     0.04710   0.02330   0.03030   0.00200   0.00130   0.00030
N3624     0.05650   0.02450   0.03410   0.00140   0.00230  -0.00040
C3625     0.07500   0.02400   0.03410   0.00840   0.01140  -0.00570
C3626     0.09300   0.02660   0.03870   0.00000   0.00300  -0.00480
C3627     0.13000   0.02540   0.04900  -0.00200   0.02800   0.00310
C3628     0.15200   0.02480   0.05000   0.00000   0.01500   0.00010
N3629     0.02330   0.04710   0.03030   0.00200  -0.00030  -0.00130
N3630     0.02450   0.05650   0.03410   0.00140   0.00040  -0.00230
C3631     0.02400   0.07500   0.03410   0.00840   0.00570  -0.01140
C3632     0.02660   0.09300   0.03870   0.00000   0.00480  -0.00300
C3633     0.02540   0.13000   0.04900  -0.00200  -0.00310  -0.02800
C3634     0.02480   0.15200   0.05000   0.00000  -0.00010  -0.01500
N3635     0.02330   0.04710   0.03030   0.00200   0.00030   0.00130
N3636     0.02450   0.05650   0.03410   0.00140  -0.00040   0.00230
C3637     0.02400   0.07500   0.03410   0.00840  -0.00570   0.01140
C3638     0.02660   0.09300   0.03870   0.00000  -0.00480   0.00300
C3639     0.02540   0.13000   0.04900  -0.00200   0.00310   0.02800
C3640     0.02480   0.15200   0.05000   0.00000   0.00010   0.01500
N3641     0.04710   0.02330   0.03030  -0.00200  -0.00130   0.00030
N3642     0.05650   0.02450   0.03410  -0.00140  -0.00230  -0.00040
C3643     0.07500   0.02400   0.03410  -0.00840  -0.01140  -0.00570
C3644     0.09300   0.02660   0.03870   0.00000  -0.00300  -0.00480
C3645     0.13000   0.02540   0.04900   0.00200  -0.02800   0.00310
C3646     0.15200   0.02480   0.05000   0.00000  -0.01500   0.00010
N3647     0.04710   0.02330   0.03030  -0.00200   0.00130  -0.00030
N3648     0.05650   0.02450   0.03410  -0.00140   0.00230   0.00040
C3649     0.07500   0.02400   0.03410  -0.00840   0.01140   0.00570
C3650     0.09300   0.02660   0.03870   0.00000   0.00300   0.00480
C3651     0.13000   0.02540   0.04900   0.00200   0.02800  -0.00310
C3652     0.15200   0.02480   0.05000   0.00000   0.01500  -0.00010
Co3653    0.02490   0.02490   0.02650  -0.00028  -0.00071   0.00071
Co3654    0.02490   0.02490   0.02650  -0.00028   0.00071  -0.00071
Co3655    0.02490   0.02490   0.02650   0.00028  -0.00071  -0.00071
Co3656    0.02490   0.02490   0.02650   0.00028   0.00071   0.00071
C3657     0.01940   0.07600   0.04700   0.00000   0.00000   0.01000
C3658     0.02310   0.06200   0.03900   0.00000   0.00000   0.00900
C3659     0.02250   0.08400   0.04600   0.00000   0.00000   0.03100
C3660     0.02300   0.08800   0.05200   0.00000   0.00000  -0.00900
C3661     0.01940   0.07600   0.04700   0.00000   0.00000  -0.01000
C3662     0.02310   0.06200   0.03900   0.00000   0.00000  -0.00900
C3663     0.02250   0.08400   0.04600   0.00000   0.00000  -0.03100
C3664     0.02300   0.08800   0.05200   0.00000   0.00000   0.00900
C3665     0.07600   0.01940   0.04700   0.00000  -0.01000   0.00000
C3666     0.06200   0.02310   0.03900   0.00000  -0.00900   0.00000
C3667     0.08400   0.02250   0.04600   0.00000  -0.03100   0.00000
C3668     0.08800   0.02300   0.05200   0.00000   0.00900   0.00000
C3669     0.07600   0.01940   0.04700   0.00000   0.01000   0.00000
C3670     0.06200   0.02310   0.03900   0.00000   0.00900   0.00000
C3671     0.08400   0.02250   0.04600   0.00000   0.03100   0.00000
C3672     0.08800   0.02300   0.05200   0.00000  -0.00900   0.00000
N3673     0.02330   0.04710   0.03030  -0.00200  -0.00030   0.00130
N3674     0.02450   0.05650   0.03410  -0.00140   0.00040   0.00230
C3675     0.02400   0.07500   0.03410  -0.00840   0.00570   0.01140
C3676     0.02660   0.09300   0.03870   0.00000   0.00480   0.00300
C3677     0.02540   0.13000   0.04900   0.00200  -0.00310   0.02800
C3678     0.02480   0.15200   0.05000   0.00000  -0.00010   0.01500
N3679     0.02330   0.04710   0.03030  -0.00200   0.00030  -0.00130
N3680     0.02450   0.05650   0.03410  -0.00140  -0.00040  -0.00230
C3681     0.02400   0.07500   0.03410  -0.00840  -0.00570  -0.01140
C3682     0.02660   0.09300   0.03870   0.00000  -0.00480  -0.00300
C3683     0.02540   0.13000   0.04900   0.00200   0.00310  -0.02800
C3684     0.02480   0.15200   0.05000   0.00000   0.00010  -0.01500
N3685     0.04710   0.02330   0.03030   0.00200  -0.00130  -0.00030
N3686     0.05650   0.02450   0.03410   0.00140  -0.00230   0.00040
C3687     0.07500   0.02400   0.03410   0.00840  -0.01140   0.00570
C3688     0.09300   0.02660   0.03870   0.00000  -0.00300   0.00480
C3689     0.13000   0.02540   0.04900  -0.00200  -0.02800  -0.00310
C3690     0.15200   0.02480   0.05000   0.00000  -0.01500  -0.00010
N3691     0.04710   0.02330   0.03030   0.00200   0.00130   0.00030
N3692     0.05650   0.02450   0.03410   0.00140   0.00230  -0.00040
C3693     0.07500   0.02400   0.03410   0.00840   0.01140  -0.00570
C3694     0.09300   0.02660   0.03870   0.00000   0.00300  -0.00480
C3695     0.13000   0.02540   0.04900  -0.00200   0.02800   0.00310
C3696     0.15200   0.02480   0.05000   0.00000   0.01500   0.00010
N3697     0.02330   0.04710   0.03030   0.00200  -0.00030  -0.00130
N3698     0.02450   0.05650   0.03410   0.00140   0.00040  -0.00230
C3699     0.02400   0.07500   0.03410   0.00840   0.00570  -0.01140
C3700     0.02660   0.09300   0.03870   0.00000   0.00480  -0.00300
C3701     0.02540   0.13000   0.04900  -0.00200  -0.00310  -0.02800
C3702     0.02480   0.15200   0.05000   0.00000  -0.00010  -0.01500
N3703     0.02330   0.04710   0.03030   0.00200   0.00030   0.00130
N3704     0.02450   0.05650   0.03410   0.00140  -0.00040   0.00230
C3705     0.02400   0.07500   0.03410   0.00840  -0.00570   0.01140
C3706     0.02660   0.09300   0.03870   0.00000  -0.00480   0.00300
C3707     0.02540   0.13000   0.04900  -0.00200   0.00310   0.02800
C3708     0.02480   0.15200   0.05000   0.00000   0.00010   0.01500
N3709     0.04710   0.02330   0.03030  -0.00200  -0.00130   0.00030
N3710     0.05650   0.02450   0.03410  -0.00140  -0.00230  -0.00040
C3711     0.07500   0.02400   0.03410  -0.00840  -0.01140  -0.00570
C3712     0.09300   0.02660   0.03870   0.00000  -0.00300  -0.00480
C3713     0.13000   0.02540   0.04900   0.00200  -0.02800   0.00310
C3714     0.15200   0.02480   0.05000   0.00000  -0.01500   0.00010
N3715     0.04710   0.02330   0.03030  -0.00200   0.00130  -0.00030
N3716     0.05650   0.02450   0.03410  -0.00140   0.00230   0.00040
C3717     0.07500   0.02400   0.03410  -0.00840   0.01140   0.00570
C3718     0.09300   0.02660   0.03870   0.00000   0.00300   0.00480
C3719     0.13000   0.02540   0.04900   0.00200   0.02800  -0.00310
C3720     0.15200   0.02480   0.05000   0.00000   0.01500  -0.00010
Co3721    0.02490   0.02490   0.02650  -0.00028  -0.00071   0.00071
Co3722    0.02490   0.02490   0.02650  -0.00028   0.00071  -0.00071
Co3723    0.02490   0.02490   0.02650   0.00028  -0.00071  -0.00071
Co3724    0.02490   0.02490   0.02650   0.00028   0.00071   0.00071
C3725     0.01940   0.07600   0.04700   0.00000   0.00000   0.01000
C3726     0.02310   0.06200   0.03900   0.00000   0.00000   0.00900
C3727     0.02250   0.08400   0.04600   0.00000   0.00000   0.03100
C3728     0.02300   0.08800   0.05200   0.00000   0.00000  -0.00900
C3729     0.01940   0.07600   0.04700   0.00000   0.00000  -0.01000
C3730     0.02310   0.06200   0.03900   0.00000   0.00000  -0.00900
C3731     0.02250   0.08400   0.04600   0.00000   0.00000  -0.03100
C3732     0.02300   0.08800   0.05200   0.00000   0.00000   0.00900
C3733     0.07600   0.01940   0.04700   0.00000  -0.01000   0.00000
C3734     0.06200   0.02310   0.03900   0.00000  -0.00900   0.00000
C3735     0.08400   0.02250   0.04600   0.00000  -0.03100   0.00000
C3736     0.08800   0.02300   0.05200   0.00000   0.00900   0.00000
C3737     0.07600   0.01940   0.04700   0.00000   0.01000   0.00000
C3738     0.06200   0.02310   0.03900   0.00000   0.00900   0.00000
C3739     0.08400   0.02250   0.04600   0.00000   0.03100   0.00000
C3740     0.08800   0.02300   0.05200   0.00000  -0.00900   0.00000
N3741     0.02330   0.04710   0.03030  -0.00200  -0.00030   0.00130
N3742     0.02450   0.05650   0.03410  -0.00140   0.00040   0.00230
C3743     0.02400   0.07500   0.03410  -0.00840   0.00570   0.01140
C3744     0.02660   0.09300   0.03870   0.00000   0.00480   0.00300
C3745     0.02540   0.13000   0.04900   0.00200  -0.00310   0.02800
C3746     0.02480   0.15200   0.05000   0.00000  -0.00010   0.01500
N3747     0.02330   0.04710   0.03030  -0.00200   0.00030  -0.00130
N3748     0.02450   0.05650   0.03410  -0.00140  -0.00040  -0.00230
C3749     0.02400   0.07500   0.03410  -0.00840  -0.00570  -0.01140
C3750     0.02660   0.09300   0.03870   0.00000  -0.00480  -0.00300
C3751     0.02540   0.13000   0.04900   0.00200   0.00310  -0.02800
C3752     0.02480   0.15200   0.05000   0.00000   0.00010  -0.01500
N3753     0.04710   0.02330   0.03030   0.00200  -0.00130  -0.00030
N3754     0.05650   0.02450   0.03410   0.00140  -0.00230   0.00040
C3755     0.07500   0.02400   0.03410   0.00840  -0.01140   0.00570
C3756     0.09300   0.02660   0.03870   0.00000  -0.00300   0.00480
C3757     0.13000   0.02540   0.04900  -0.00200  -0.02800  -0.00310
C3758     0.15200   0.02480   0.05000   0.00000  -0.01500  -0.00010
N3759     0.04710   0.02330   0.03030   0.00200   0.00130   0.00030
N3760     0.05650   0.02450   0.03410   0.00140   0.00230  -0.00040
C3761     0.07500   0.02400   0.03410   0.00840   0.01140  -0.00570
C3762     0.09300   0.02660   0.03870   0.00000   0.00300  -0.00480
C3763     0.13000   0.02540   0.04900  -0.00200   0.02800   0.00310
C3764     0.15200   0.02480   0.05000   0.00000   0.01500   0.00010
N3765     0.02330   0.04710   0.03030   0.00200  -0.00030  -0.00130
N3766     0.02450   0.05650   0.03410   0.00140   0.00040  -0.00230
C3767     0.02400   0.07500   0.03410   0.00840   0.00570  -0.01140
C3768     0.02660   0.09300   0.03870   0.00000   0.00480  -0.00300
C3769     0.02540   0.13000   0.04900  -0.00200  -0.00310  -0.02800
C3770     0.02480   0.15200   0.05000   0.00000  -0.00010  -0.01500
N3771     0.02330   0.04710   0.03030   0.00200   0.00030   0.00130
N3772     0.02450   0.05650   0.03410   0.00140  -0.00040   0.00230
C3773     0.02400   0.07500   0.03410   0.00840  -0.00570   0.01140
C3774     0.02660   0.09300   0.03870   0.00000  -0.00480   0.00300
C3775     0.02540   0.13000   0.04900  -0.00200   0.00310   0.02800
C3776     0.02480   0.15200   0.05000   0.00000   0.00010   0.01500
N3777     0.04710   0.02330   0.03030  -0.00200  -0.00130   0.00030
N3778     0.05650   0.02450   0.03410  -0.00140  -0.00230  -0.00040
C3779     0.07500   0.02400   0.03410  -0.00840  -0.01140  -0.00570
C3780     0.09300   0.02660   0.03870   0.00000  -0.00300  -0.00480
C3781     0.13000   0.02540   0.04900   0.00200  -0.02800   0.00310
C3782     0.15200   0.02480   0.05000   0.00000  -0.01500   0.00010
N3783     0.04710   0.02330   0.03030  -0.00200   0.00130  -0.00030
N3784     0.05650   0.02450   0.03410  -0.00140   0.00230   0.00040
C3785     0.07500   0.02400   0.03410  -0.00840   0.01140   0.00570
C3786     0.09300   0.02660   0.03870   0.00000   0.00300   0.00480
C3787     0.13000   0.02540   0.04900   0.00200   0.02800  -0.00310
C3788     0.15200   0.02480   0.05000   0.00000   0.01500  -0.00010
Co3789    0.02490   0.02490   0.02650  -0.00028  -0.00071   0.00071
Co3790    0.02490   0.02490   0.02650  -0.00028   0.00071  -0.00071
Co3791    0.02490   0.02490   0.02650   0.00028  -0.00071  -0.00071
Co3792    0.02490   0.02490   0.02650   0.00028   0.00071   0.00071
C3793     0.01940   0.07600   0.04700   0.00000   0.00000   0.01000
C3794     0.02310   0.06200   0.03900   0.00000   0.00000   0.00900
C3795     0.02250   0.08400   0.04600   0.00000   0.00000   0.03100
C3796     0.02300   0.08800   0.05200   0.00000   0.00000  -0.00900
C3797     0.01940   0.07600   0.04700   0.00000   0.00000  -0.01000
C3798     0.02310   0.06200   0.03900   0.00000   0.00000  -0.00900
C3799     0.02250   0.08400   0.04600   0.00000   0.00000  -0.03100
C3800     0.02300   0.08800   0.05200   0.00000   0.00000   0.00900
C3801     0.07600   0.01940   0.04700   0.00000  -0.01000   0.00000
C3802     0.06200   0.02310   0.03900   0.00000  -0.00900   0.00000
C3803     0.08400   0.02250   0.04600   0.00000  -0.03100   0.00000
C3804     0.08800   0.02300   0.05200   0.00000   0.00900   0.00000
C3805     0.07600   0.01940   0.04700   0.00000   0.01000   0.00000
C3806     0.06200   0.02310   0.03900   0.00000   0.00900   0.00000
C3807     0.08400   0.02250   0.04600   0.00000   0.03100   0.00000
C3808     0.08800   0.02300   0.05200   0.00000  -0.00900   0.00000
N3809     0.02330   0.04710   0.03030  -0.00200  -0.00030   0.00130
N3810     0.02450   0.05650   0.03410  -0.00140   0.00040   0.00230
C3811     0.02400   0.07500   0.03410  -0.00840   0.00570   0.01140
C3812     0.02660   0.09300   0.03870   0.00000   0.00480   0.00300
C3813     0.02540   0.13000   0.04900   0.00200  -0.00310   0.02800
C3814     0.02480   0.15200   0.05000   0.00000  -0.00010   0.01500
N3815     0.02330   0.04710   0.03030  -0.00200   0.00030  -0.00130
N3816     0.02450   0.05650   0.03410  -0.00140  -0.00040  -0.00230
C3817     0.02400   0.07500   0.03410  -0.00840  -0.00570  -0.01140
C3818     0.02660   0.09300   0.03870   0.00000  -0.00480  -0.00300
C3819     0.02540   0.13000   0.04900   0.00200   0.00310  -0.02800
C3820     0.02480   0.15200   0.05000   0.00000   0.00010  -0.01500
N3821     0.04710   0.02330   0.03030   0.00200  -0.00130  -0.00030
N3822     0.05650   0.02450   0.03410   0.00140  -0.00230   0.00040
C3823     0.07500   0.02400   0.03410   0.00840  -0.01140   0.00570
C3824     0.09300   0.02660   0.03870   0.00000  -0.00300   0.00480
C3825     0.13000   0.02540   0.04900  -0.00200  -0.02800  -0.00310
C3826     0.15200   0.02480   0.05000   0.00000  -0.01500  -0.00010
N3827     0.04710   0.02330   0.03030   0.00200   0.00130   0.00030
N3828     0.05650   0.02450   0.03410   0.00140   0.00230  -0.00040
C3829     0.07500   0.02400   0.03410   0.00840   0.01140  -0.00570
C3830     0.09300   0.02660   0.03870   0.00000   0.00300  -0.00480
C3831     0.13000   0.02540   0.04900  -0.00200   0.02800   0.00310
C3832     0.15200   0.02480   0.05000   0.00000   0.01500   0.00010
N3833     0.02330   0.04710   0.03030   0.00200  -0.00030  -0.00130
N3834     0.02450   0.05650   0.03410   0.00140   0.00040  -0.00230
C3835     0.02400   0.07500   0.03410   0.00840   0.00570  -0.01140
C3836     0.02660   0.09300   0.03870   0.00000   0.00480  -0.00300
C3837     0.02540   0.13000   0.04900  -0.00200  -0.00310  -0.02800
C3838     0.02480   0.15200   0.05000   0.00000  -0.00010  -0.01500
N3839     0.02330   0.04710   0.03030   0.00200   0.00030   0.00130
N3840     0.02450   0.05650   0.03410   0.00140  -0.00040   0.00230
C3841     0.02400   0.07500   0.03410   0.00840  -0.00570   0.01140
C3842     0.02660   0.09300   0.03870   0.00000  -0.00480   0.00300
C3843     0.02540   0.13000   0.04900  -0.00200   0.00310   0.02800
C3844     0.02480   0.15200   0.05000   0.00000   0.00010   0.01500
N3845     0.04710   0.02330   0.03030  -0.00200  -0.00130   0.00030
N3846     0.05650   0.02450   0.03410  -0.00140  -0.00230  -0.00040
C3847     0.07500   0.02400   0.03410  -0.00840  -0.01140  -0.00570
C3848     0.09300   0.02660   0.03870   0.00000  -0.00300  -0.00480
C3849     0.13000   0.02540   0.04900   0.00200  -0.02800   0.00310
C3850     0.15200   0.02480   0.05000   0.00000  -0.01500   0.00010
N3851     0.04710   0.02330   0.03030  -0.00200   0.00130  -0.00030
N3852     0.05650   0.02450   0.03410  -0.00140   0.00230   0.00040
C3853     0.07500   0.02400   0.03410  -0.00840   0.01140   0.00570
C3854     0.09300   0.02660   0.03870   0.00000   0.00300   0.00480
C3855     0.13000   0.02540   0.04900   0.00200   0.02800  -0.00310
C3856     0.15200   0.02480   0.05000   0.00000   0.01500  -0.00010
Co3857    0.02490   0.02490   0.02650  -0.00028  -0.00071   0.00071
Co3858    0.02490   0.02490   0.02650  -0.00028   0.00071  -0.00071
Co3859    0.02490   0.02490   0.02650   0.00028  -0.00071  -0.00071
Co3860    0.02490   0.02490   0.02650   0.00028   0.00071   0.00071
C3861     0.01940   0.07600   0.04700   0.00000   0.00000   0.01000
C3862     0.02310   0.06200   0.03900   0.00000   0.00000   0.00900
C3863     0.02250   0.08400   0.04600   0.00000   0.00000   0.03100
C3864     0.02300   0.08800   0.05200   0.00000   0.00000  -0.00900
C3865     0.01940   0.07600   0.04700   0.00000   0.00000  -0.01000
C3866     0.02310   0.06200   0.03900   0.00000   0.00000  -0.00900
C3867     0.02250   0.08400   0.04600   0.00000   0.00000  -0.03100
C3868     0.02300   0.08800   0.05200   0.00000   0.00000   0.00900
C3869     0.07600   0.01940   0.04700   0.00000  -0.01000   0.00000
C3870     0.06200   0.02310   0.03900   0.00000  -0.00900   0.00000
C3871     0.08400   0.02250   0.04600   0.00000  -0.03100   0.00000
C3872     0.08800   0.02300   0.05200   0.00000   0.00900   0.00000
C3873     0.07600   0.01940   0.04700   0.00000   0.01000   0.00000
C3874     0.06200   0.02310   0.03900   0.00000   0.00900   0.00000
C3875     0.08400   0.02250   0.04600   0.00000   0.03100   0.00000
C3876     0.08800   0.02300   0.05200   0.00000  -0.00900   0.00000
N3877     0.02330   0.04710   0.03030  -0.00200  -0.00030   0.00130
N3878     0.02450   0.05650   0.03410  -0.00140   0.00040   0.00230
C3879     0.02400   0.07500   0.03410  -0.00840   0.00570   0.01140
C3880     0.02660   0.09300   0.03870   0.00000   0.00480   0.00300
C3881     0.02540   0.13000   0.04900   0.00200  -0.00310   0.02800
C3882     0.02480   0.15200   0.05000   0.00000  -0.00010   0.01500
N3883     0.02330   0.04710   0.03030  -0.00200   0.00030  -0.00130
N3884     0.02450   0.05650   0.03410  -0.00140  -0.00040  -0.00230
C3885     0.02400   0.07500   0.03410  -0.00840  -0.00570  -0.01140
C3886     0.02660   0.09300   0.03870   0.00000  -0.00480  -0.00300
C3887     0.02540   0.13000   0.04900   0.00200   0.00310  -0.02800
C3888     0.02480   0.15200   0.05000   0.00000   0.00010  -0.01500
N3889     0.04710   0.02330   0.03030   0.00200  -0.00130  -0.00030
N3890     0.05650   0.02450   0.03410   0.00140  -0.00230   0.00040
C3891     0.07500   0.02400   0.03410   0.00840  -0.01140   0.00570
C3892     0.09300   0.02660   0.03870   0.00000  -0.00300   0.00480
C3893     0.13000   0.02540   0.04900  -0.00200  -0.02800  -0.00310
C3894     0.15200   0.02480   0.05000   0.00000  -0.01500  -0.00010
N3895     0.04710   0.02330   0.03030   0.00200   0.00130   0.00030
N3896     0.05650   0.02450   0.03410   0.00140   0.00230  -0.00040
C3897     0.07500   0.02400   0.03410   0.00840   0.01140  -0.00570
C3898     0.09300   0.02660   0.03870   0.00000   0.00300  -0.00480
C3899     0.13000   0.02540   0.04900  -0.00200   0.02800   0.00310
C3900     0.15200   0.02480   0.05000   0.00000   0.01500   0.00010
N3901     0.02330   0.04710   0.03030   0.00200  -0.00030  -0.00130
N3902     0.02450   0.05650   0.03410   0.00140   0.00040  -0.00230
C3903     0.02400   0.07500   0.03410   0.00840   0.00570  -0.01140
C3904     0.02660   0.09300   0.03870   0.00000   0.00480  -0.00300
C3905     0.02540   0.13000   0.04900  -0.00200  -0.00310  -0.02800
C3906     0.02480   0.15200   0.05000   0.00000  -0.00010  -0.01500
N3907     0.02330   0.04710   0.03030   0.00200   0.00030   0.00130
N3908     0.02450   0.05650   0.03410   0.00140  -0.00040   0.00230
C3909     0.02400   0.07500   0.03410   0.00840  -0.00570   0.01140
C3910     0.02660   0.09300   0.03870   0.00000  -0.00480   0.00300
C3911     0.02540   0.13000   0.04900  -0.00200   0.00310   0.02800
C3912     0.02480   0.15200   0.05000   0.00000   0.00010   0.01500
N3913     0.04710   0.02330   0.03030  -0.00200  -0.00130   0.00030
N3914     0.05650   0.02450   0.03410  -0.00140  -0.00230  -0.00040
C3915     0.07500   0.02400   0.03410  -0.00840  -0.01140  -0.00570
C3916     0.09300   0.02660   0.03870   0.00000  -0.00300  -0.00480
C3917     0.13000   0.02540   0.04900   0.00200  -0.02800   0.00310
C3918     0.15200   0.02480   0.05000   0.00000  -0.01500   0.00010
N3919     0.04710   0.02330   0.03030  -0.00200   0.00130  -0.00030
N3920     0.05650   0.02450   0.03410  -0.00140   0.00230   0.00040
C3921     0.07500   0.02400   0.03410  -0.00840   0.01140   0.00570
C3922     0.09300   0.02660   0.03870   0.00000   0.00300   0.00480
C3923     0.13000   0.02540   0.04900   0.00200   0.02800  -0.00310
C3924     0.15200   0.02480   0.05000   0.00000   0.01500  -0.00010
Co3925    0.02490   0.02490   0.02650  -0.00028  -0.00071   0.00071
Co3926    0.02490   0.02490   0.02650  -0.00028   0.00071  -0.00071
Co3927    0.02490   0.02490   0.02650   0.00028  -0.00071  -0.00071
Co3928    0.02490   0.02490   0.02650   0.00028   0.00071   0.00071
C3929     0.01940   0.07600   0.04700   0.00000   0.00000   0.01000
C3930     0.02310   0.06200   0.03900   0.00000   0.00000   0.00900
C3931     0.02250   0.08400   0.04600   0.00000   0.00000   0.03100
C3932     0.02300   0.08800   0.05200   0.00000   0.00000  -0.00900
C3933     0.01940   0.07600   0.04700   0.00000   0.00000  -0.01000
C3934     0.02310   0.06200   0.03900   0.00000   0.00000  -0.00900
C3935     0.02250   0.08400   0.04600   0.00000   0.00000  -0.03100
C3936     0.02300   0.08800   0.05200   0.00000   0.00000   0.00900
C3937     0.07600   0.01940   0.04700   0.00000  -0.01000   0.00000
C3938     0.06200   0.02310   0.03900   0.00000  -0.00900   0.00000
C3939     0.08400   0.02250   0.04600   0.00000  -0.03100   0.00000
C3940     0.08800   0.02300   0.05200   0.00000   0.00900   0.00000
C3941     0.07600   0.01940   0.04700   0.00000   0.01000   0.00000
C3942     0.06200   0.02310   0.03900   0.00000   0.00900   0.00000
C3943     0.08400   0.02250   0.04600   0.00000   0.03100   0.00000
C3944     0.08800   0.02300   0.05200   0.00000  -0.00900   0.00000
N3945     0.02330   0.04710   0.03030  -0.00200  -0.00030   0.00130
N3946     0.02450   0.05650   0.03410  -0.00140   0.00040   0.00230
C3947     0.02400   0.07500   0.03410  -0.00840   0.00570   0.01140
C3948     0.02660   0.09300   0.03870   0.00000   0.00480   0.00300
C3949     0.02540   0.13000   0.04900   0.00200  -0.00310   0.02800
C3950     0.02480   0.15200   0.05000   0.00000  -0.00010   0.01500
N3951     0.02330   0.04710   0.03030  -0.00200   0.00030  -0.00130
N3952     0.02450   0.05650   0.03410  -0.00140  -0.00040  -0.00230
C3953     0.02400   0.07500   0.03410  -0.00840  -0.00570  -0.01140
C3954     0.02660   0.09300   0.03870   0.00000  -0.00480  -0.00300
C3955     0.02540   0.13000   0.04900   0.00200   0.00310  -0.02800
C3956     0.02480   0.15200   0.05000   0.00000   0.00010  -0.01500
N3957     0.04710   0.02330   0.03030   0.00200  -0.00130  -0.00030
N3958     0.05650   0.02450   0.03410   0.00140  -0.00230   0.00040
C3959     0.07500   0.02400   0.03410   0.00840  -0.01140   0.00570
C3960     0.09300   0.02660   0.03870   0.00000  -0.00300   0.00480
C3961     0.13000   0.02540   0.04900  -0.00200  -0.02800  -0.00310
C3962     0.15200   0.02480   0.05000   0.00000  -0.01500  -0.00010
N3963     0.04710   0.02330   0.03030   0.00200   0.00130   0.00030
N3964     0.05650   0.02450   0.03410   0.00140   0.00230  -0.00040
C3965     0.07500   0.02400   0.03410   0.00840   0.01140  -0.00570
C3966     0.09300   0.02660   0.03870   0.00000   0.00300  -0.00480
C3967     0.13000   0.02540   0.04900  -0.00200   0.02800   0.00310
C3968     0.15200   0.02480   0.05000   0.00000   0.01500   0.00010
N3969     0.02330   0.04710   0.03030   0.00200  -0.00030  -0.00130
N3970     0.02450   0.05650   0.03410   0.00140   0.00040  -0.00230
C3971     0.02400   0.07500   0.03410   0.00840   0.00570  -0.01140
C3972     0.02660   0.09300   0.03870   0.00000   0.00480  -0.00300
C3973     0.02540   0.13000   0.04900  -0.00200  -0.00310  -0.02800
C3974     0.02480   0.15200   0.05000   0.00000  -0.00010  -0.01500
N3975     0.02330   0.04710   0.03030   0.00200   0.00030   0.00130
N3976     0.02450   0.05650   0.03410   0.00140  -0.00040   0.00230
C3977     0.02400   0.07500   0.03410   0.00840  -0.00570   0.01140
C3978     0.02660   0.09300   0.03870   0.00000  -0.00480   0.00300
C3979     0.02540   0.13000   0.04900  -0.00200   0.00310   0.02800
C3980     0.02480   0.15200   0.05000   0.00000   0.00010   0.01500
N3981     0.04710   0.02330   0.03030  -0.00200  -0.00130   0.00030
N3982     0.05650   0.02450   0.03410  -0.00140  -0.00230  -0.00040
C3983     0.07500   0.02400   0.03410  -0.00840  -0.01140  -0.00570
C3984     0.09300   0.02660   0.03870   0.00000  -0.00300  -0.00480
C3985     0.13000   0.02540   0.04900   0.00200  -0.02800   0.00310
C3986     0.15200   0.02480   0.05000   0.00000  -0.01500   0.00010
N3987     0.04710   0.02330   0.03030  -0.00200   0.00130  -0.00030
N3988     0.05650   0.02450   0.03410  -0.00140   0.00230   0.00040
C3989     0.07500   0.02400   0.03410  -0.00840   0.01140   0.00570
C3990     0.09300   0.02660   0.03870   0.00000   0.00300   0.00480
C3991     0.13000   0.02540   0.04900   0.00200   0.02800  -0.00310
C3992     0.15200   0.02480   0.05000   0.00000   0.01500  -0.00010
Co3993    0.02490   0.02490   0.02650  -0.00028  -0.00071   0.00071
Co3994    0.02490   0.02490   0.02650  -0.00028   0.00071  -0.00071
Co3995    0.02490   0.02490   0.02650   0.00028  -0.00071  -0.00071
Co3996    0.02490   0.02490   0.02650   0.00028   0.00071   0.00071
C3997     0.01940   0.07600   0.04700   0.00000   0.00000   0.01000
C3998     0.02310   0.06200   0.03900   0.00000   0.00000   0.00900
C3999     0.02250   0.08400   0.04600   0.00000   0.00000   0.03100
C4000     0.02300   0.08800   0.05200   0.00000   0.00000  -0.00900
C4001     0.01940   0.07600   0.04700   0.00000   0.00000  -0.01000
C4002     0.02310   0.06200   0.03900   0.00000   0.00000  -0.00900
C4003     0.02250   0.08400   0.04600   0.00000   0.00000  -0.03100
C4004     0.02300   0.08800   0.05200   0.00000   0.00000   0.00900
C4005     0.07600   0.01940   0.04700   0.00000  -0.01000   0.00000
C4006     0.06200   0.02310   0.03900   0.00000  -0.00900   0.00000
C4007     0.08400   0.02250   0.04600   0.00000  -0.03100   0.00000
C4008     0.08800   0.02300   0.05200   0.00000   0.00900   0.00000
C4009     0.07600   0.01940   0.04700   0.00000   0.01000   0.00000
C4010     0.06200   0.02310   0.03900   0.00000   0.00900   0.00000
C4011     0.08400   0.02250   0.04600   0.00000   0.03100   0.00000
C4012     0.08800   0.02300   0.05200   0.00000  -0.00900   0.00000
N4013     0.02330   0.04710   0.03030  -0.00200  -0.00030   0.00130
N4014     0.02450   0.05650   0.03410  -0.00140   0.00040   0.00230
C4015     0.02400   0.07500   0.03410  -0.00840   0.00570   0.01140
C4016     0.02660   0.09300   0.03870   0.00000   0.00480   0.00300
C4017     0.02540   0.13000   0.04900   0.00200  -0.00310   0.02800
C4018     0.02480   0.15200   0.05000   0.00000  -0.00010   0.01500
N4019     0.02330   0.04710   0.03030  -0.00200   0.00030  -0.00130
N4020     0.02450   0.05650   0.03410  -0.00140  -0.00040  -0.00230
C4021     0.02400   0.07500   0.03410  -0.00840  -0.00570  -0.01140
C4022     0.02660   0.09300   0.03870   0.00000  -0.00480  -0.00300
C4023     0.02540   0.13000   0.04900   0.00200   0.00310  -0.02800
C4024     0.02480   0.15200   0.05000   0.00000   0.00010  -0.01500
N4025     0.04710   0.02330   0.03030   0.00200  -0.00130  -0.00030
N4026     0.05650   0.02450   0.03410   0.00140  -0.00230   0.00040
C4027     0.07500   0.02400   0.03410   0.00840  -0.01140   0.00570
C4028     0.09300   0.02660   0.03870   0.00000  -0.00300   0.00480
C4029     0.13000   0.02540   0.04900  -0.00200  -0.02800  -0.00310
C4030     0.15200   0.02480   0.05000   0.00000  -0.01500  -0.00010
N4031     0.04710   0.02330   0.03030   0.00200   0.00130   0.00030
N4032     0.05650   0.02450   0.03410   0.00140   0.00230  -0.00040
C4033     0.07500   0.02400   0.03410   0.00840   0.01140  -0.00570
C4034     0.09300   0.02660   0.03870   0.00000   0.00300  -0.00480
C4035     0.13000   0.02540   0.04900  -0.00200   0.02800   0.00310
C4036     0.15200   0.02480   0.05000   0.00000   0.01500   0.00010
N4037     0.02330   0.04710   0.03030   0.00200  -0.00030  -0.00130
N4038     0.02450   0.05650   0.03410   0.00140   0.00040  -0.00230
C4039     0.02400   0.07500   0.03410   0.00840   0.00570  -0.01140
C4040     0.02660   0.09300   0.03870   0.00000   0.00480  -0.00300
C4041     0.02540   0.13000   0.04900  -0.00200  -0.00310  -0.02800
C4042     0.02480   0.15200   0.05000   0.00000  -0.00010  -0.01500
N4043     0.02330   0.04710   0.03030   0.00200   0.00030   0.00130
N4044     0.02450   0.05650   0.03410   0.00140  -0.00040   0.00230
C4045     0.02400   0.07500   0.03410   0.00840  -0.00570   0.01140
C4046     0.02660   0.09300   0.03870   0.00000  -0.00480   0.00300
C4047     0.02540   0.13000   0.04900  -0.00200   0.00310   0.02800
C4048     0.02480   0.15200   0.05000   0.00000   0.00010   0.01500
N4049     0.04710   0.02330   0.03030  -0.00200  -0.00130   0.00030
N4050     0.05650   0.02450   0.03410  -0.00140  -0.00230  -0.00040
C4051     0.07500   0.02400   0.03410  -0.00840  -0.01140  -0.00570
C4052     0.09300   0.02660   0.03870   0.00000  -0.00300  -0.00480
C4053     0.13000   0.02540   0.04900   0.00200  -0.02800   0.00310
C4054     0.15200   0.02480   0.05000   0.00000  -0.01500   0.00010
N4055     0.04710   0.02330   0.03030  -0.00200   0.00130  -0.00030
N4056     0.05650   0.02450   0.03410  -0.00140   0.00230   0.00040
C4057     0.07500   0.02400   0.03410  -0.00840   0.01140   0.00570
C4058     0.09300   0.02660   0.03870   0.00000   0.00300   0.00480
C4059     0.13000   0.02540   0.04900   0.00200   0.02800  -0.00310
C4060     0.15200   0.02480   0.05000   0.00000   0.01500  -0.00010
Co4061    0.02490   0.02490   0.02650  -0.00028  -0.00071   0.00071
Co4062    0.02490   0.02490   0.02650  -0.00028   0.00071  -0.00071
Co4063    0.02490   0.02490   0.02650   0.00028  -0.00071  -0.00071
Co4064    0.02490   0.02490   0.02650   0.00028   0.00071   0.00071
C4065     0.01940   0.07600   0.04700   0.00000   0.00000   0.01000
C4066     0.02310   0.06200   0.03900   0.00000   0.00000   0.00900
C4067     0.02250   0.08400   0.04600   0.00000   0.00000   0.03100
C4068     0.02300   0.08800   0.05200   0.00000   0.00000  -0.00900
C4069     0.01940   0.07600   0.04700   0.00000   0.00000  -0.01000
C4070     0.02310   0.06200   0.03900   0.00000   0.00000  -0.00900
C4071     0.02250   0.08400   0.04600   0.00000   0.00000  -0.03100
C4072     0.02300   0.08800   0.05200   0.00000   0.00000   0.00900
C4073     0.07600   0.01940   0.04700   0.00000  -0.01000   0.00000
C4074     0.06200   0.02310   0.03900   0.00000  -0.00900   0.00000
C4075     0.08400   0.02250   0.04600   0.00000  -0.03100   0.00000
C4076     0.08800   0.02300   0.05200   0.00000   0.00900   0.00000
C4077     0.07600   0.01940   0.04700   0.00000   0.01000   0.00000
C4078     0.06200   0.02310   0.03900   0.00000   0.00900   0.00000
C4079     0.08400   0.02250   0.04600   0.00000   0.03100   0.00000
C4080     0.08800   0.02300   0.05200   0.00000  -0.00900   0.00000
N4081     0.02330   0.04710   0.03030  -0.00200  -0.00030   0.00130
N4082     0.02450   0.05650   0.03410  -0.00140   0.00040   0.00230
C4083     0.02400   0.07500   0.03410  -0.00840   0.00570   0.01140
C4084     0.02660   0.09300   0.03870   0.00000   0.00480   0.00300
C4085     0.02540   0.13000   0.04900   0.00200  -0.00310   0.02800
C4086     0.02480   0.15200   0.05000   0.00000  -0.00010   0.01500
N4087     0.02330   0.04710   0.03030  -0.00200   0.00030  -0.00130
N4088     0.02450   0.05650   0.03410  -0.00140  -0.00040  -0.00230
C4089     0.02400   0.07500   0.03410  -0.00840  -0.00570  -0.01140
C4090     0.02660   0.09300   0.03870   0.00000  -0.00480  -0.00300
C4091     0.02540   0.13000   0.04900   0.00200   0.00310  -0.02800
C4092     0.02480   0.15200   0.05000   0.00000   0.00010  -0.01500
N4093     0.04710   0.02330   0.03030   0.00200  -0.00130  -0.00030
N4094     0.05650   0.02450   0.03410   0.00140  -0.00230   0.00040
C4095     0.07500   0.02400   0.03410   0.00840  -0.01140   0.00570
C4096     0.09300   0.02660   0.03870   0.00000  -0.00300   0.00480
C4097     0.13000   0.02540   0.04900  -0.00200  -0.02800  -0.00310
C4098     0.15200   0.02480   0.05000   0.00000  -0.01500  -0.00010
N4099     0.04710   0.02330   0.03030   0.00200   0.00130   0.00030
N4100     0.05650   0.02450   0.03410   0.00140   0.00230  -0.00040
C4101     0.07500   0.02400   0.03410   0.00840   0.01140  -0.00570
C4102     0.09300   0.02660   0.03870   0.00000   0.00300  -0.00480
C4103     0.13000   0.02540   0.04900  -0.00200   0.02800   0.00310
C4104     0.15200   0.02480   0.05000   0.00000   0.01500   0.00010
N4105     0.02330   0.04710   0.03030   0.00200  -0.00030  -0.00130
N4106     0.02450   0.05650   0.03410   0.00140   0.00040  -0.00230
C4107     0.02400   0.07500   0.03410   0.00840   0.00570  -0.01140
C4108     0.02660   0.09300   0.03870   0.00000   0.00480  -0.00300
C4109     0.02540   0.13000   0.04900  -0.00200  -0.00310  -0.02800
C4110     0.02480   0.15200   0.05000   0.00000  -0.00010  -0.01500
N4111     0.02330   0.04710   0.03030   0.00200   0.00030   0.00130
N4112     0.02450   0.05650   0.03410   0.00140  -0.00040   0.00230
C4113     0.02400   0.07500   0.03410   0.00840  -0.00570   0.01140
C4114     0.02660   0.09300   0.03870   0.00000  -0.00480   0.00300
C4115     0.02540   0.13000   0.04900  -0.00200   0.00310   0.02800
C4116     0.02480   0.15200   0.05000   0.00000   0.00010   0.01500
N4117     0.04710   0.02330   0.03030  -0.00200  -0.00130   0.00030
N4118     0.05650   0.02450   0.03410  -0.00140  -0.00230  -0.00040
C4119     0.07500   0.02400   0.03410  -0.00840  -0.01140  -0.00570
C4120     0.09300   0.02660   0.03870   0.00000  -0.00300  -0.00480
C4121     0.13000   0.02540   0.04900   0.00200  -0.02800   0.00310
C4122     0.15200   0.02480   0.05000   0.00000  -0.01500   0.00010
N4123     0.04710   0.02330   0.03030  -0.00200   0.00130  -0.00030
N4124     0.05650   0.02450   0.03410  -0.00140   0.00230   0.00040
C4125     0.07500   0.02400   0.03410  -0.00840   0.01140   0.00570
C4126     0.09300   0.02660   0.03870   0.00000   0.00300   0.00480
C4127     0.13000   0.02540   0.04900   0.00200   0.02800  -0.00310
C4128     0.15200   0.02480   0.05000   0.00000   0.01500  -0.00010
Co4129    0.02490   0.02490   0.02650  -0.00028  -0.00071   0.00071
Co4130    0.02490   0.02490   0.02650  -0.00028   0.00071  -0.00071
Co4131    0.02490   0.02490   0.02650   0.00028  -0.00071  -0.00071
Co4132    0.02490   0.02490   0.02650   0.00028   0.00071   0.00071
C4133     0.01940   0.07600   0.04700   0.00000   0.00000   0.01000
C4134     0.02310   0.06200   0.03900   0.00000   0.00000   0.00900
C4135     0.02250   0.08400   0.04600   0.00000   0.00000   0.03100
C4136     0.02300   0.08800   0.05200   0.00000   0.00000  -0.00900
C4137     0.01940   0.07600   0.04700   0.00000   0.00000  -0.01000
C4138     0.02310   0.06200   0.03900   0.00000   0.00000  -0.00900
C4139     0.02250   0.08400   0.04600   0.00000   0.00000  -0.03100
C4140     0.02300   0.08800   0.05200   0.00000   0.00000   0.00900
C4141     0.07600   0.01940   0.04700   0.00000  -0.01000   0.00000
C4142     0.06200   0.02310   0.03900   0.00000  -0.00900   0.00000
C4143     0.08400   0.02250   0.04600   0.00000  -0.03100   0.00000
C4144     0.08800   0.02300   0.05200   0.00000   0.00900   0.00000
C4145     0.07600   0.01940   0.04700   0.00000   0.01000   0.00000
C4146     0.06200   0.02310   0.03900   0.00000   0.00900   0.00000
C4147     0.08400   0.02250   0.04600   0.00000   0.03100   0.00000
C4148     0.08800   0.02300   0.05200   0.00000  -0.00900   0.00000
N4149     0.02330   0.04710   0.03030  -0.00200  -0.00030   0.00130
N4150     0.02450   0.05650   0.03410  -0.00140   0.00040   0.00230
C4151     0.02400   0.07500   0.03410  -0.00840   0.00570   0.01140
C4152     0.02660   0.09300   0.03870   0.00000   0.00480   0.00300
C4153     0.02540   0.13000   0.04900   0.00200  -0.00310   0.02800
C4154     0.02480   0.15200   0.05000   0.00000  -0.00010   0.01500
N4155     0.02330   0.04710   0.03030  -0.00200   0.00030  -0.00130
N4156     0.02450   0.05650   0.03410  -0.00140  -0.00040  -0.00230
C4157     0.02400   0.07500   0.03410  -0.00840  -0.00570  -0.01140
C4158     0.02660   0.09300   0.03870   0.00000  -0.00480  -0.00300
C4159     0.02540   0.13000   0.04900   0.00200   0.00310  -0.02800
C4160     0.02480   0.15200   0.05000   0.00000   0.00010  -0.01500
N4161     0.04710   0.02330   0.03030   0.00200  -0.00130  -0.00030
N4162     0.05650   0.02450   0.03410   0.00140  -0.00230   0.00040
C4163     0.07500   0.02400   0.03410   0.00840  -0.01140   0.00570
C4164     0.09300   0.02660   0.03870   0.00000  -0.00300   0.00480
C4165     0.13000   0.02540   0.04900  -0.00200  -0.02800  -0.00310
C4166     0.15200   0.02480   0.05000   0.00000  -0.01500  -0.00010
N4167     0.04710   0.02330   0.03030   0.00200   0.00130   0.00030
N4168     0.05650   0.02450   0.03410   0.00140   0.00230  -0.00040
C4169     0.07500   0.02400   0.03410   0.00840   0.01140  -0.00570
C4170     0.09300   0.02660   0.03870   0.00000   0.00300  -0.00480
C4171     0.13000   0.02540   0.04900  -0.00200   0.02800   0.00310
C4172     0.15200   0.02480   0.05000   0.00000   0.01500   0.00010
N4173     0.02330   0.04710   0.03030   0.00200  -0.00030  -0.00130
N4174     0.02450   0.05650   0.03410   0.00140   0.00040  -0.00230
C4175     0.02400   0.07500   0.03410   0.00840   0.00570  -0.01140
C4176     0.02660   0.09300   0.03870   0.00000   0.00480  -0.00300
C4177     0.02540   0.13000   0.04900  -0.00200  -0.00310  -0.02800
C4178     0.02480   0.15200   0.05000   0.00000  -0.00010  -0.01500
N4179     0.02330   0.04710   0.03030   0.00200   0.00030   0.00130
N4180     0.02450   0.05650   0.03410   0.00140  -0.00040   0.00230
C4181     0.02400   0.07500   0.03410   0.00840  -0.00570   0.01140
C4182     0.02660   0.09300   0.03870   0.00000  -0.00480   0.00300
C4183     0.02540   0.13000   0.04900  -0.00200   0.00310   0.02800
C4184     0.02480   0.15200   0.05000   0.00000   0.00010   0.01500
N4185     0.04710   0.02330   0.03030  -0.00200  -0.00130   0.00030
N4186     0.05650   0.02450   0.03410  -0.00140  -0.00230  -0.00040
C4187     0.07500   0.02400   0.03410  -0.00840  -0.01140  -0.00570
C4188     0.09300   0.02660   0.03870   0.00000  -0.00300  -0.00480
C4189     0.13000   0.02540   0.04900   0.00200  -0.02800   0.00310
C4190     0.15200   0.02480   0.05000   0.00000  -0.01500   0.00010
N4191     0.04710   0.02330   0.03030  -0.00200   0.00130  -0.00030
N4192     0.05650   0.02450   0.03410  -0.00140   0.00230   0.00040
C4193     0.07500   0.02400   0.03410  -0.00840   0.01140   0.00570
C4194     0.09300   0.02660   0.03870   0.00000   0.00300   0.00480
C4195     0.13000   0.02540   0.04900   0.00200   0.02800  -0.00310
C4196     0.15200   0.02480   0.05000   0.00000   0.01500  -0.00010
Co4197    0.02490   0.02490   0.02650  -0.00028  -0.00071   0.00071
Co4198    0.02490   0.02490   0.02650  -0.00028   0.00071  -0.00071
Co4199    0.02490   0.02490   0.02650   0.00028  -0.00071  -0.00071
Co4200    0.02490   0.02490   0.02650   0.00028   0.00071   0.00071
C4201     0.01940   0.07600   0.04700   0.00000   0.00000   0.01000
C4202     0.02310   0.06200   0.03900   0.00000   0.00000   0.00900
C4203     0.02250   0.08400   0.04600   0.00000   0.00000   0.03100
C4204     0.02300   0.08800   0.05200   0.00000   0.00000  -0.00900
C4205     0.01940   0.07600   0.04700   0.00000   0.00000  -0.01000
C4206     0.02310   0.06200   0.03900   0.00000   0.00000  -0.00900
C4207     0.02250   0.08400   0.04600   0.00000   0.00000  -0.03100
C4208     0.02300   0.08800   0.05200   0.00000   0.00000   0.00900
C4209     0.07600   0.01940   0.04700   0.00000  -0.01000   0.00000
C4210     0.06200   0.02310   0.03900   0.00000  -0.00900   0.00000
C4211     0.08400   0.02250   0.04600   0.00000  -0.03100   0.00000
C4212     0.08800   0.02300   0.05200   0.00000   0.00900   0.00000
C4213     0.07600   0.01940   0.04700   0.00000   0.01000   0.00000
C4214     0.06200   0.02310   0.03900   0.00000   0.00900   0.00000
C4215     0.08400   0.02250   0.04600   0.00000   0.03100   0.00000
C4216     0.08800   0.02300   0.05200   0.00000  -0.00900   0.00000
N4217     0.02330   0.04710   0.03030  -0.00200  -0.00030   0.00130
N4218     0.02450   0.05650   0.03410  -0.00140   0.00040   0.00230
C4219     0.02400   0.07500   0.03410  -0.00840   0.00570   0.01140
C4220     0.02660   0.09300   0.03870   0.00000   0.00480   0.00300
C4221     0.02540   0.13000   0.04900   0.00200  -0.00310   0.02800
C4222     0.02480   0.15200   0.05000   0.00000  -0.00010   0.01500
N4223     0.02330   0.04710   0.03030  -0.00200   0.00030  -0.00130
N4224     0.02450   0.05650   0.03410  -0.00140  -0.00040  -0.00230
C4225     0.02400   0.07500   0.03410  -0.00840  -0.00570  -0.01140
C4226     0.02660   0.09300   0.03870   0.00000  -0.00480  -0.00300
C4227     0.02540   0.13000   0.04900   0.00200   0.00310  -0.02800
C4228     0.02480   0.15200   0.05000   0.00000   0.00010  -0.01500
N4229     0.04710   0.02330   0.03030   0.00200  -0.00130  -0.00030
N4230     0.05650   0.02450   0.03410   0.00140  -0.00230   0.00040
C4231     0.07500   0.02400   0.03410   0.00840  -0.01140   0.00570
C4232     0.09300   0.02660   0.03870   0.00000  -0.00300   0.00480
C4233     0.13000   0.02540   0.04900  -0.00200  -0.02800  -0.00310
C4234     0.15200   0.02480   0.05000   0.00000  -0.01500  -0.00010
N4235     0.04710   0.02330   0.03030   0.00200   0.00130   0.00030
N4236     0.05650   0.02450   0.03410   0.00140   0.00230  -0.00040
C4237     0.07500   0.02400   0.03410   0.00840   0.01140  -0.00570
C4238     0.09300   0.02660   0.03870   0.00000   0.00300  -0.00480
C4239     0.13000   0.02540   0.04900  -0.00200   0.02800   0.00310
C4240     0.15200   0.02480   0.05000   0.00000   0.01500   0.00010
N4241     0.02330   0.04710   0.03030   0.00200  -0.00030  -0.00130
N4242     0.02450   0.05650   0.03410   0.00140   0.00040  -0.00230
C4243     0.02400   0.07500   0.03410   0.00840   0.00570  -0.01140
C4244     0.02660   0.09300   0.03870   0.00000   0.00480  -0.00300
C4245     0.02540   0.13000   0.04900  -0.00200  -0.00310  -0.02800
C4246     0.02480   0.15200   0.05000   0.00000  -0.00010  -0.01500
N4247     0.02330   0.04710   0.03030   0.00200   0.00030   0.00130
N4248     0.02450   0.05650   0.03410   0.00140  -0.00040   0.00230
C4249     0.02400   0.07500   0.03410   0.00840  -0.00570   0.01140
C4250     0.02660   0.09300   0.03870   0.00000  -0.00480   0.00300
C4251     0.02540   0.13000   0.04900  -0.00200   0.00310   0.02800
C4252     0.02480   0.15200   0.05000   0.00000   0.00010   0.01500
N4253     0.04710   0.02330   0.03030  -0.00200  -0.00130   0.00030
N4254     0.05650   0.02450   0.03410  -0.00140  -0.00230  -0.00040
C4255     0.07500   0.02400   0.03410  -0.00840  -0.01140  -0.00570
C4256     0.09300   0.02660   0.03870   0.00000  -0.00300  -0.00480
C4257     0.13000   0.02540   0.04900   0.00200  -0.02800   0.00310
C4258     0.15200   0.02480   0.05000   0.00000  -0.01500   0.00010
N4259     0.04710   0.02330   0.03030  -0.00200   0.00130  -0.00030
N4260     0.05650   0.02450   0.03410  -0.00140   0.00230   0.00040
C4261     0.07500   0.02400   0.03410  -0.00840   0.01140   0.00570
C4262     0.09300   0.02660   0.03870   0.00000   0.00300   0.00480
C4263     0.13000   0.02540   0.04900   0.00200   0.02800  -0.00310
C4264     0.15200   0.02480   0.05000   0.00000   0.01500  -0.00010
Co4265    0.02490   0.02490   0.02650  -0.00028  -0.00071   0.00071
Co4266    0.02490   0.02490   0.02650  -0.00028   0.00071  -0.00071
Co4267    0.02490   0.02490   0.02650   0.00028  -0.00071  -0.00071
Co4268    0.02490   0.02490   0.02650   0.00028   0.00071   0.00071
C4269     0.01940   0.07600   0.04700   0.00000   0.00000   0.01000
C4270     0.02310   0.06200   0.03900   0.00000   0.00000   0.00900
C4271     0.02250   0.08400   0.04600   0.00000   0.00000   0.03100
C4272     0.02300   0.08800   0.05200   0.00000   0.00000  -0.00900
C4273     0.01940   0.07600   0.04700   0.00000   0.00000  -0.01000
C4274     0.02310   0.06200   0.03900   0.00000   0.00000  -0.00900
C4275     0.02250   0.08400   0.04600   0.00000   0.00000  -0.03100
C4276     0.02300   0.08800   0.05200   0.00000   0.00000   0.00900
C4277     0.07600   0.01940   0.04700   0.00000  -0.01000   0.00000
C4278     0.06200   0.02310   0.03900   0.00000  -0.00900   0.00000
C4279     0.08400   0.02250   0.04600   0.00000  -0.03100   0.00000
C4280     0.08800   0.02300   0.05200   0.00000   0.00900   0.00000
C4281     0.07600   0.01940   0.04700   0.00000   0.01000   0.00000
C4282     0.06200   0.02310   0.03900   0.00000   0.00900   0.00000
C4283     0.08400   0.02250   0.04600   0.00000   0.03100   0.00000
C4284     0.08800   0.02300   0.05200   0.00000  -0.00900   0.00000
N4285     0.02330   0.04710   0.03030  -0.00200  -0.00030   0.00130
N4286     0.02450   0.05650   0.03410  -0.00140   0.00040   0.00230
C4287     0.02400   0.07500   0.03410  -0.00840   0.00570   0.01140
C4288     0.02660   0.09300   0.03870   0.00000   0.00480   0.00300
C4289     0.02540   0.13000   0.04900   0.00200  -0.00310   0.02800
C4290     0.02480   0.15200   0.05000   0.00000  -0.00010   0.01500
N4291     0.02330   0.04710   0.03030  -0.00200   0.00030  -0.00130
N4292     0.02450   0.05650   0.03410  -0.00140  -0.00040  -0.00230
C4293     0.02400   0.07500   0.03410  -0.00840  -0.00570  -0.01140
C4294     0.02660   0.09300   0.03870   0.00000  -0.00480  -0.00300
C4295     0.02540   0.13000   0.04900   0.00200   0.00310  -0.02800
C4296     0.02480   0.15200   0.05000   0.00000   0.00010  -0.01500
N4297     0.04710   0.02330   0.03030   0.00200  -0.00130  -0.00030
N4298     0.05650   0.02450   0.03410   0.00140  -0.00230   0.00040
C4299     0.07500   0.02400   0.03410   0.00840  -0.01140   0.00570
C4300     0.09300   0.02660   0.03870   0.00000  -0.00300   0.00480
C4301     0.13000   0.02540   0.04900  -0.00200  -0.02800  -0.00310
C4302     0.15200   0.02480   0.05000   0.00000  -0.01500  -0.00010
N4303     0.04710   0.02330   0.03030   0.00200   0.00130   0.00030
N4304     0.05650   0.02450   0.03410   0.00140   0.00230  -0.00040
C4305     0.07500   0.02400   0.03410   0.00840   0.01140  -0.00570
C4306     0.09300   0.02660   0.03870   0.00000   0.00300  -0.00480
C4307     0.13000   0.02540   0.04900  -0.00200   0.02800   0.00310
C4308     0.15200   0.02480   0.05000   0.00000   0.01500   0.00010
N4309     0.02330   0.04710   0.03030   0.00200  -0.00030  -0.00130
N4310     0.02450   0.05650   0.03410   0.00140   0.00040  -0.00230
C4311     0.02400   0.07500   0.03410   0.00840   0.00570  -0.01140
C4312     0.02660   0.09300   0.03870   0.00000   0.00480  -0.00300
C4313     0.02540   0.13000   0.04900  -0.00200  -0.00310  -0.02800
C4314     0.02480   0.15200   0.05000   0.00000  -0.00010  -0.01500
N4315     0.02330   0.04710   0.03030   0.00200   0.00030   0.00130
N4316     0.02450   0.05650   0.03410   0.00140  -0.00040   0.00230
C4317     0.02400   0.07500   0.03410   0.00840  -0.00570   0.01140
C4318     0.02660   0.09300   0.03870   0.00000  -0.00480   0.00300
C4319     0.02540   0.13000   0.04900  -0.00200   0.00310   0.02800
C4320     0.02480   0.15200   0.05000   0.00000   0.00010   0.01500
N4321     0.04710   0.02330   0.03030  -0.00200  -0.00130   0.00030
N4322     0.05650   0.02450   0.03410  -0.00140  -0.00230  -0.00040
C4323     0.07500   0.02400   0.03410  -0.00840  -0.01140  -0.00570
C4324     0.09300   0.02660   0.03870   0.00000  -0.00300  -0.00480
C4325     0.13000   0.02540   0.04900   0.00200  -0.02800   0.00310
C4326     0.15200   0.02480   0.05000   0.00000  -0.01500   0.00010
N4327     0.04710   0.02330   0.03030  -0.00200   0.00130  -0.00030
N4328     0.05650   0.02450   0.03410  -0.00140   0.00230   0.00040
C4329     0.07500   0.02400   0.03410  -0.00840   0.01140   0.00570
C4330     0.09300   0.02660   0.03870   0.00000   0.00300   0.00480
C4331     0.13000   0.02540   0.04900   0.00200   0.02800  -0.00310
C4332     0.15200   0.02480   0.05000   0.00000   0.01500  -0.00010
Co4333    0.02490   0.02490   0.02650  -0.00028  -0.00071   0.00071
Co4334    0.02490   0.02490   0.02650  -0.00028   0.00071  -0.00071
Co4335    0.02490   0.02490   0.02650   0.00028  -0.00071  -0.00071
Co4336    0.02490   0.02490   0.02650   0.00028   0.00071   0.00071
C4337     0.01940   0.07600   0.04700   0.00000   0.00000   0.01000
C4338     0.02310   0.06200   0.03900   0.00000   0.00000   0.00900
C4339     0.02250   0.08400   0.04600   0.00000   0.00000   0.03100
C4340     0.02300   0.08800   0.05200   0.00000   0.00000  -0.00900
C4341     0.01940   0.07600   0.04700   0.00000   0.00000  -0.01000
C4342     0.02310   0.06200   0.03900   0.00000   0.00000  -0.00900
C4343     0.02250   0.08400   0.04600   0.00000   0.00000  -0.03100
C4344     0.02300   0.08800   0.05200   0.00000   0.00000   0.00900
C4345     0.07600   0.01940   0.04700   0.00000  -0.01000   0.00000
C4346     0.06200   0.02310   0.03900   0.00000  -0.00900   0.00000
C4347     0.08400   0.02250   0.04600   0.00000  -0.03100   0.00000
C4348     0.08800   0.02300   0.05200   0.00000   0.00900   0.00000
C4349     0.07600   0.01940   0.04700   0.00000   0.01000   0.00000
C4350     0.06200   0.02310   0.03900   0.00000   0.00900   0.00000
C4351     0.08400   0.02250   0.04600   0.00000   0.03100   0.00000
C4352     0.08800   0.02300   0.05200   0.00000  -0.00900   0.00000
loop_
_geom_bond_atom_site_label_1
_geom_bond_atom_site_label_2
_geom_bond_distance
_geom_bond_site_symmetry_2
_ccdc_geom_bond_type
N1     Co49    1.980   .     S
N1     C3      1.327   .     S
N1     N303    1.357   .     S
N2     C4      1.335   .     S
N2     Co256   1.976   1_455 S
N2     N848    1.349   1_545 S
C3     C326    1.379   .     S
C4     C53     1.374   .     S
C5     C56     1.372   .     S
C5     C6      1.372   .     S
C6     C55     1.375   .     S
N7     Co50    1.980   .     S
N7     C9      1.327   .     S
N7     N841    1.357   1_545 S
N8     C10     1.335   .     S
N8     Co119   1.976   .     S
N8     N298    1.349   .     S
C9     C58     1.379   .     S
C10    C329    1.374   .     S
C11    C332    1.372   .     S
C11    C12     1.372   .     S
C12    C331    1.375   .     S
N13    Co51    1.980   .     S
N13    C15     1.327   .     S
N13    N241    1.357   1_455 S
N14    C16     1.335   .     S
N14    Co865   1.976   1_545 S
N14    N106    1.349   .     S
C15    C62     1.379   .     S
C16    C129    1.374   .     S
C17    C132    1.372   .     S
C17    C18     1.372   .     S
C18    C131    1.375   .     S
N19    Co52    1.980   .     S
N19    C21     1.327   .     S
N19    N3375   1.357   1_554 S
N20    C22     1.335   .     S
N20    Co322   1.976   .     S
N20    N1336   1.349   1_455 S
C21    C134    1.379   .     S
C22    C1153   1.374   .     S
C23    C1156   1.372   .     S
C23    C24     1.372   .     S
C24    C1155   1.375   .     S
N25    Co51    1.980   .     S
N25    C27     1.327   .     S
N25    N279    1.357   .     S
N26    C28     1.335   .     S
N26    Co118   1.976   .     S
N26    N824    1.349   1_545 S
C27    C330    1.379   .     S
C28    C57     1.374   .     S
C29    C60     1.372   .     S
C29    C30     1.372   .     S
C30    C59     1.375   .     S
N31    Co52    1.980   .     S
N31    C33     1.327   .     S
N31    N817    1.357   1_545 S
N32    C34     1.335   .     S
N32    Co253   1.976   1_455 S
N32    N274    1.349   .     S
C33    C54     1.379   .     S
C34    C325    1.374   .     S
C35    C328    1.372   .     S
C35    C36     1.372   .     S
C36    C327    1.375   .     S
N37    Co49    1.980   .     S
N37    C39     1.327   .     S
N37    N81     1.357   .     S
N38    C40     1.335   .     S
N38    Co867   1.976   1_545 S
N38    N218    1.349   1_455 S
C39    C130    1.379   .     S
C40    C61     1.374   .     S
C41    C64     1.372   .     S
C41    C42     1.372   .     S
C42    C63     1.375   .     S
N43    Co50    1.980   .     S
N43    C45     1.327   .     S
N43    N1311   1.357   1_455 S
N44    C46     1.335   .     S
N44    Co324   1.976   .     S
N44    N3352   1.349   1_554 S
C45    C1154   1.379   .     S
C46    C133    1.374   .     S
C47    C136    1.372   .     S
C47    C48     1.372   .     S
C48    C135    1.375   .     S
Co49   N286    1.976   .     S
Co49   N100    1.976   .     S
Co50   N836    1.976   1_545 S
Co50   N230    1.976   1_455 S
Co51   N212    1.976   1_455 S
Co51   N310    1.976   .     S
Co52   N70     1.976   .     S
Co52   N860    1.976   1_545 S
C53    C850    1.374   1_545 S
C53    C56     1.490   .     S
C54    C819    1.379   1_545 S
C54    C55     1.481   .     S
C55    C852    1.375   1_545 S
C56    C851    1.372   1_545 S
C57    C826    1.374   1_545 S
C57    C60     1.490   .     S
C58    C843    1.379   1_545 S
C58    C59     1.481   .     S
C59    C828    1.375   1_545 S
C60    C827    1.372   1_545 S
C61    C220    1.374   1_455 S
C61    C64     1.490   .     S
C62    C243    1.379   1_455 S
C62    C63     1.481   .     S
C63    C222    1.375   1_455 S
C64    C221    1.372   1_455 S
C65    C3286   1.374   1_554 S
C65    C250    1.374   1_455 S
C65    C68     1.490   .     S
C66    C225    1.379   1_455 S
C66    C3309   1.379   1_554 S
C66    C67     1.481   .     S
C67    C3288   1.375   1_554 S
C67    C252    1.375   1_455 S
C68    C3287   1.372   1_554 S
C68    C251    1.372   1_455 S
N69    Co117   1.980   .     S
N69    C71     1.327   .     S
N69    N371    1.357   .     S
N70    C72     1.335   .     S
N70    N916    1.349   1_545 S
C71    C394    1.379   .     S
C72    C121    1.374   .     S
C73    C124    1.372   .     S
C73    C74     1.372   .     S
C74    C123    1.375   .     S
N75    Co118   1.980   .     S
N75    C77     1.327   .     S
N75    N909    1.357   1_545 S
N76    C78     1.335   .     S
N76    Co187   1.976   .     S
N76    N366    1.349   .     S
C77    C126    1.379   .     S
C78    C397    1.374   .     S
C79    C400    1.372   .     S
C79    C80     1.372   .     S
C80    C399    1.375   .     S
N81    Co119   1.980   .     S
N81    C83     1.327   .     S
N82    C84     1.335   .     S
N82    Co933   1.976   1_545 S
N82    N174    1.349   .     S
C83    C130    1.379   .     S
C84    C197    1.374   .     S
C85    C200    1.372   .     S
C85    C86     1.372   .     S
C86    C199    1.375   .     S
N87    Co120   1.980   .     S
N87    C89     1.327   .     S
N87    N3443   1.357   1_554 S
N88    C90     1.335   .     S
N88    Co390   1.976   .     S
N88    N1132   1.349   .     S
C89    C202    1.379   .     S
C90    C1221   1.374   .     S
C91    C1224   1.372   .     S
C91    C92     1.372   .     S
C92    C1223   1.375   .     S
N93    Co119   1.980   .     S
N93    C95     1.327   .     S
N93    N347    1.357   .     S
N94    C96     1.335   .     S
N94    Co186   1.976   .     S
N94    N892    1.349   1_545 S
C95    C398    1.379   .     S
C96    C125    1.374   .     S
C97    C128    1.372   .     S
C97    C98     1.372   .     S
C98    C127    1.375   .     S
N99    Co120   1.980   .     S
N99    C101    1.327   .     S
N99    N885    1.357   1_545 S
N100   C102    1.335   .     S
N100   N342    1.349   .     S
C101   C122    1.379   .     S
C102   C393    1.374   .     S
C103   C396    1.372   .     S
C103   C104    1.372   .     S
C104   C395    1.375   .     S
N105   Co117   1.980   .     S
N105   C107    1.327   .     S
N105   N149    1.357   .     S
N106   C108    1.335   .     S
N106   Co935   1.976   1_545 S
C107   C198    1.379   .     S
C108   C129    1.374   .     S
C109   C132    1.372   .     S
C109   C110    1.372   .     S
C110   C131    1.375   .     S
N111   Co118   1.980   .     S
N111   C113    1.327   .     S
N111   N1107   1.357   .     S
N112   C114    1.335   .     S
N112   Co392   1.976   .     S
N112   N3420   1.349   1_554 S
C113   C1222   1.379   .     S
C114   C201    1.374   .     S
C115   C204    1.372   .     S
C115   C116    1.372   .     S
C116   C203    1.375   .     S
Co117  N354    1.976   .     S
Co117  N168    1.976   .     S
Co118  N904    1.976   1_545 S
Co119  N378    1.976   .     S
Co120  N138    1.976   .     S
Co120  N928    1.976   1_545 S
C121   C918    1.374   1_545 S
C121   C124    1.490   .     S
C122   C887    1.379   1_545 S
C122   C123    1.481   .     S
C123   C920    1.375   1_545 S
C124   C919    1.372   1_545 S
C125   C894    1.374   1_545 S
C125   C128    1.490   .     S
C126   C911    1.379   1_545 S
C126   C127    1.481   .     S
C127   C896    1.375   1_545 S
C128   C895    1.372   1_545 S
C129   C132    1.490   .     S
C130   C131    1.481   .     S
C133   C3354   1.374   1_554 S
C133   C136    1.490   .     S
C134   C3377   1.379   1_554 S
C134   C135    1.481   .     S
C135   C3356   1.375   1_554 S
C136   C3355   1.372   1_554 S
N137   Co185   1.980   .     S
N137   C139    1.327   .     S
N137   N439    1.357   .     S
N138   C140    1.335   .     S
N138   N984    1.349   1_545 S
C139   C462    1.379   .     S
C140   C189    1.374   .     S
C141   C192    1.372   .     S
C141   C142    1.372   .     S
C142   C191    1.375   .     S
N143   Co186   1.980   .     S
N143   C145    1.327   .     S
N143   N977    1.357   1_545 S
N144   C146    1.335   .     S
N144   Co255   1.976   .     S
N144   N434    1.349   .     S
C145   C194    1.379   .     S
C146   C465    1.374   .     S
C147   C468    1.372   .     S
C147   C148    1.372   .     S
C148   C467    1.375   .     S
N149   Co187   1.980   .     S
N149   C151    1.327   .     S
N150   C152    1.335   .     S
N150   Co1001  1.976   1_545 S
N150   N242    1.349   .     S
C151   C198    1.379   .     S
C152   C265    1.374   .     S
C153   C268    1.372   .     S
C153   C154    1.372   .     S
C154   C267    1.375   .     S
N155   Co188   1.980   .     S
N155   C157    1.327   .     S
N155   N3511   1.357   1_554 S
N156   C158    1.335   .     S
N156   Co458   1.976   .     S
N156   N1200   1.349   .     S
C157   C270    1.379   .     S
C158   C1289   1.374   .     S
C159   C1292   1.372   .     S
C159   C160    1.372   .     S
C160   C1291   1.375   .     S
N161   Co187   1.980   .     S
N161   C163    1.327   .     S
N161   N415    1.357   .     S
N162   C164    1.335   .     S
N162   Co254   1.976   .     S
N162   N960    1.349   1_545 S
C163   C466    1.379   .     S
C164   C193    1.374   .     S
C165   C196    1.372   .     S
C165   C166    1.372   .     S
C166   C195    1.375   .     S
N167   Co188   1.980   .     S
N167   C169    1.327   .     S
N167   N953    1.357   1_545 S
N168   C170    1.335   .     S
N168   N410    1.349   .     S
C169   C190    1.379   .     S
C170   C461    1.374   .     S
C171   C464    1.372   .     S
C171   C172    1.372   .     S
C172   C463    1.375   .     S
N173   Co185   1.980   .     S
N173   C175    1.327   .     S
N173   N217    1.357   .     S
N174   C176    1.335   .     S
N174   Co1003  1.976   1_545 S
C175   C266    1.379   .     S
C176   C197    1.374   .     S
C177   C200    1.372   .     S
C177   C178    1.372   .     S
C178   C199    1.375   .     S
N179   Co186   1.980   .     S
N179   C181    1.327   .     S
N179   N1175   1.357   .     S
N180   C182    1.335   .     S
N180   Co460   1.976   .     S
N180   N3488   1.349   1_554 S
C181   C1290   1.379   .     S
C182   C269    1.374   .     S
C183   C272    1.372   .     S
C183   C184    1.372   .     S
C184   C271    1.375   .     S
Co185  N422    1.976   .     S
Co185  N236    1.976   .     S
Co186  N972    1.976   1_545 S
Co187  N446    1.976   .     S
Co188  N206    1.976   .     S
Co188  N996    1.976   1_545 S
C189   C986    1.374   1_545 S
C189   C192    1.490   .     S
C190   C955    1.379   1_545 S
C190   C191    1.481   .     S
C191   C988    1.375   1_545 S
C192   C987    1.372   1_545 S
C193   C962    1.374   1_545 S
C193   C196    1.490   .     S
C194   C979    1.379   1_545 S
C194   C195    1.481   .     S
C195   C964    1.375   1_545 S
C196   C963    1.372   1_545 S
C197   C200    1.490   .     S
C198   C199    1.481   .     S
C201   C3422   1.374   1_554 S
C201   C204    1.490   .     S
C202   C3445   1.379   1_554 S
C202   C203    1.481   .     S
C203   C3424   1.375   1_554 S
C204   C3423   1.372   1_554 S
N205   Co253   1.980   .     S
N205   C207    1.327   .     S
N205   N507    1.357   .     S
N206   C208    1.335   .     S
N206   N1052   1.349   1_545 S
C207   C530    1.379   .     S
C208   C257    1.374   .     S
C209   C260    1.372   .     S
C209   C210    1.372   .     S
C210   C259    1.375   .     S
N211   Co254   1.980   .     S
N211   C213    1.327   .     S
N211   N1045   1.357   1_545 S
N212   C214    1.335   .     S
N212   Co51    1.976   1_655 S
N212   N502    1.349   .     S
C213   C262    1.379   .     S
C214   C533    1.374   .     S
C215   C536    1.372   .     S
C215   C216    1.372   .     S
C216   C535    1.375   .     S
N217   Co255   1.980   .     S
N217   C219    1.327   .     S
N218   C220    1.335   .     S
N218   Co1069  1.976   1_545 S
N218   N38     1.349   1_655 S
C219   C266    1.379   .     S
C220   C61     1.374   1_655 S
C221   C64     1.372   1_655 S
C221   C222    1.372   .     S
C222   C63     1.375   1_655 S
N223   Co256   1.980   .     S
N223   C225    1.327   .     S
N223   N3307   1.357   1_654 S
N224   C226    1.335   .     S
N224   Co526   1.976   .     S
N224   N1268   1.349   .     S
C225   C66     1.379   1_655 S
C226   C1357   1.374   .     S
C227   C1360   1.372   .     S
C227   C228    1.372   .     S
C228   C1359   1.375   .     S
N229   Co255   1.980   .     S
N229   C231    1.327   .     S
N229   N483    1.357   .     S
N230   C232    1.335   .     S
N230   Co50    1.976   1_655 S
N230   N1028   1.349   1_545 S
C231   C534    1.379   .     S
C232   C261    1.374   .     S
C233   C264    1.372   .     S
C233   C234    1.372   .     S
C234   C263    1.375   .     S
N235   Co256   1.980   .     S
N235   C237    1.327   .     S
N235   N1021   1.357   1_545 S
N236   C238    1.335   .     S
N236   N478    1.349   .     S
C237   C258    1.379   .     S
C238   C529    1.374   .     S
C239   C532    1.372   .     S
C239   C240    1.372   .     S
C240   C531    1.375   .     S
N241   Co253   1.980   .     S
N241   C243    1.327   .     S
N241   N13     1.357   1_655 S
N242   C244    1.335   .     S
N242   Co1071  1.976   1_545 S
C243   C62     1.379   1_655 S
C244   C265    1.374   .     S
C245   C268    1.372   .     S
C245   C246    1.372   .     S
C246   C267    1.375   .     S
N247   Co254   1.980   .     S
N247   C249    1.327   .     S
N247   N1243   1.357   .     S
N248   C250    1.335   .     S
N248   Co528   1.976   .     S
N248   N3284   1.349   1_654 S
C249   C1358   1.379   .     S
C250   C65     1.374   1_655 S
C251   C68     1.372   1_655 S
C251   C252    1.372   .     S
C252   C67     1.375   1_655 S
Co253  N490    1.976   .     S
Co253  N32     1.976   1_655 S
Co254  N1040   1.976   1_545 S
Co255  N514    1.976   .     S
Co256  N2      1.976   1_655 S
Co256  N1064   1.976   1_545 S
C257   C1054   1.374   1_545 S
C257   C260    1.490   .     S
C258   C1023   1.379   1_545 S
C258   C259    1.481   .     S
C259   C1056   1.375   1_545 S
C260   C1055   1.372   1_545 S
C261   C1030   1.374   1_545 S
C261   C264    1.490   .     S
C262   C1047   1.379   1_545 S
C262   C263    1.481   .     S
C263   C1032   1.375   1_545 S
C264   C1031   1.372   1_545 S
C265   C268    1.490   .     S
C266   C267    1.481   .     S
C269   C3490   1.374   1_554 S
C269   C272    1.490   .     S
C270   C3513   1.379   1_554 S
C270   C271    1.481   .     S
C271   C3492   1.375   1_554 S
C272   C3491   1.372   1_554 S
N273   Co321   1.980   .     S
N273   C275    1.327   .     S
N273   N575    1.357   .     S
N274   C276    1.335   .     S
N274   Co528   1.976   1_455 S
C275   C598    1.379   .     S
C276   C325    1.374   .     S
C277   C328    1.372   .     S
C277   C278    1.372   .     S
C278   C327    1.375   .     S
N279   Co322   1.980   .     S
N279   C281    1.327   .     S
N280   C282    1.335   .     S
N280   Co391   1.976   .     S
N280   N570    1.349   .     S
C281   C330    1.379   .     S
C282   C601    1.374   .     S
C283   C604    1.372   .     S
C283   C284    1.372   .     S
C284   C603    1.375   .     S
N285   Co323   1.980   .     S
N285   C287    1.327   .     S
N285   N513    1.357   1_455 S
N286   C288    1.335   .     S
N286   N378    1.349   .     S
C287   C334    1.379   .     S
C288   C401    1.374   .     S
C289   C404    1.372   .     S
C289   C290    1.372   .     S
C290   C403    1.375   .     S
N291   Co324   1.980   .     S
N291   C293    1.327   .     S
N291   N3647   1.357   1_554 S
N292   C294    1.335   .     S
N292   Co594   1.976   .     S
N292   N1608   1.349   1_455 S
C293   C406    1.379   .     S
C294   C1425   1.374   .     S
C295   C1428   1.372   .     S
C295   C296    1.372   .     S
C296   C1427   1.375   .     S
N297   Co323   1.980   .     S
N297   C299    1.327   .     S
N297   N551    1.357   .     S
N298   C300    1.335   .     S
N298   Co390   1.976   .     S
C299   C602    1.379   .     S
C300   C329    1.374   .     S
C301   C332    1.372   .     S
C301   C302    1.372   .     S
C302   C331    1.375   .     S
N303   Co324   1.980   .     S
N303   C305    1.327   .     S
N304   C306    1.335   .     S
N304   Co525   1.976   1_455 S
N304   N546    1.349   .     S
C305   C326    1.379   .     S
C306   C597    1.374   .     S
C307   C600    1.372   .     S
C307   C308    1.372   .     S
C308   C599    1.375   .     S
N309   Co321   1.980   .     S
N309   C311    1.327   .     S
N309   N353    1.357   .     S
N310   C312    1.335   .     S
N310   N490    1.349   1_455 S
C311   C402    1.379   .     S
C312   C333    1.374   .     S
C313   C336    1.372   .     S
C313   C314    1.372   .     S
C314   C335    1.375   .     S
N315   Co322   1.980   .     S
N315   C317    1.327   .     S
N315   N1583   1.357   1_455 S
N316   C318    1.335   .     S
N316   Co596   1.976   .     S
N316   N3624   1.349   1_554 S
C317   C1426   1.379   .     S
C318   C405    1.374   .     S
C319   C408    1.372   .     S
C319   C320    1.372   .     S
C320   C407    1.375   .     S
Co321  N558    1.976   .     S
Co321  N372    1.976   .     S
Co322  N502    1.976   1_455 S
Co323  N484    1.976   1_455 S
Co323  N582    1.976   .     S
Co324  N342    1.976   .     S
C325   C328    1.490   .     S
C326   C327    1.481   .     S
C329   C332    1.490   .     S
C330   C331    1.481   .     S
C333   C492    1.374   1_455 S
C333   C336    1.490   .     S
C334   C515    1.379   1_455 S
C334   C335    1.481   .     S
C335   C494    1.375   1_455 S
C336   C493    1.372   1_455 S
C337   C3558   1.374   1_554 S
C337   C522    1.374   1_455 S
C337   C340    1.490   .     S
C338   C497    1.379   1_455 S
C338   C3581   1.379   1_554 S
C338   C339    1.481   .     S
C339   C3560   1.375   1_554 S
C339   C524    1.375   1_455 S
C340   C3559   1.372   1_554 S
C340   C523    1.372   1_455 S
N341   Co389   1.980   .     S
N341   C343    1.327   .     S
N341   N643    1.357   .     S
N342   C344    1.335   .     S
C343   C666    1.379   .     S
C344   C393    1.374   .     S
C345   C396    1.372   .     S
C345   C346    1.372   .     S
C346   C395    1.375   .     S
N347   Co390   1.980   .     S
N347   C349    1.327   .     S
N348   C350    1.335   .     S
N348   Co459   1.976   .     S
N348   N638    1.349   .     S
C349   C398    1.379   .     S
C350   C669    1.374   .     S
C351   C672    1.372   .     S
C351   C352    1.372   .     S
C352   C671    1.375   .     S
N353   Co391   1.980   .     S
N353   C355    1.327   .     S
N354   C356    1.335   .     S
N354   N446    1.349   .     S
C355   C402    1.379   .     S
C356   C469    1.374   .     S
C357   C472    1.372   .     S
C357   C358    1.372   .     S
C358   C471    1.375   .     S
N359   Co392   1.980   .     S
N359   C361    1.327   .     S
N359   N3715   1.357   1_554 S
N360   C362    1.335   .     S
N360   Co662   1.976   .     S
N360   N1404   1.349   .     S
C361   C474    1.379   .     S
C362   C1493   1.374   .     S
C363   C1496   1.372   .     S
C363   C364    1.372   .     S
C364   C1495   1.375   .     S
N365   Co391   1.980   .     S
N365   C367    1.327   .     S
N365   N619    1.357   .     S
N366   C368    1.335   .     S
N366   Co458   1.976   .     S
C367   C670    1.379   .     S
C368   C397    1.374   .     S
C369   C400    1.372   .     S
C369   C370    1.372   .     S
C370   C399    1.375   .     S
N371   Co392   1.980   .     S
N371   C373    1.327   .     S
N372   C374    1.335   .     S
N372   N614    1.349   .     S
C373   C394    1.379   .     S
C374   C665    1.374   .     S
C375   C668    1.372   .     S
C375   C376    1.372   .     S
C376   C667    1.375   .     S
N377   Co389   1.980   .     S
N377   C379    1.327   .     S
N377   N421    1.357   .     S
N378   C380    1.335   .     S
C379   C470    1.379   .     S
C380   C401    1.374   .     S
C381   C404    1.372   .     S
C381   C382    1.372   .     S
C382   C403    1.375   .     S
N383   Co390   1.980   .     S
N383   C385    1.327   .     S
N383   N1379   1.357   .     S
N384   C386    1.335   .     S
N384   Co664   1.976   .     S
N384   N3692   1.349   1_554 S
C385   C1494   1.379   .     S
C386   C473    1.374   .     S
C387   C476    1.372   .     S
C387   C388    1.372   .     S
C388   C475    1.375   .     S
Co389  N626    1.976   .     S
Co389  N440    1.976   .     S
Co391  N650    1.976   .     S
Co392  N410    1.976   .     S
C393   C396    1.490   .     S
C394   C395    1.481   .     S
C397   C400    1.490   .     S
C398   C399    1.481   .     S
C401   C404    1.490   .     S
C402   C403    1.481   .     S
C405   C3626   1.374   1_554 S
C405   C408    1.490   .     S
C406   C3649   1.379   1_554 S
C406   C407    1.481   .     S
C407   C3628   1.375   1_554 S
C408   C3627   1.372   1_554 S
N409   Co457   1.980   .     S
N409   C411    1.327   .     S
N409   N711    1.357   .     S
N410   C412    1.335   .     S
C411   C734    1.379   .     S
C412   C461    1.374   .     S
C413   C464    1.372   .     S
C413   C414    1.372   .     S
C414   C463    1.375   .     S
N415   Co458   1.980   .     S
N415   C417    1.327   .     S
N416   C418    1.335   .     S
N416   Co527   1.976   .     S
N416   N706    1.349   .     S
C417   C466    1.379   .     S
C418   C737    1.374   .     S
C419   C740    1.372   .     S
C419   C420    1.372   .     S
C420   C739    1.375   .     S
N421   Co459   1.980   .     S
N421   C423    1.327   .     S
N422   C424    1.335   .     S
N422   N514    1.349   .     S
C423   C470    1.379   .     S
C424   C537    1.374   .     S
C425   C540    1.372   .     S
C425   C426    1.372   .     S
C426   C539    1.375   .     S
N427   Co460   1.980   .     S
N427   C429    1.327   .     S
N427   N3783   1.357   1_554 S
N428   C430    1.335   .     S
N428   Co730   1.976   .     S
N428   N1472   1.349   .     S
C429   C542    1.379   .     S
C430   C1561   1.374   .     S
C431   C1564   1.372   .     S
C431   C432    1.372   .     S
C432   C1563   1.375   .     S
N433   Co459   1.980   .     S
N433   C435    1.327   .     S
N433   N687    1.357   .     S
N434   C436    1.335   .     S
N434   Co526   1.976   .     S
C435   C738    1.379   .     S
C436   C465    1.374   .     S
C437   C468    1.372   .     S
C437   C438    1.372   .     S
C438   C467    1.375   .     S
N439   Co460   1.980   .     S
N439   C441    1.327   .     S
N440   C442    1.335   .     S
N440   N682    1.349   .     S
C441   C462    1.379   .     S
C442   C733    1.374   .     S
C443   C736    1.372   .     S
C443   C444    1.372   .     S
C444   C735    1.375   .     S
N445   Co457   1.980   .     S
N445   C447    1.327   .     S
N445   N489    1.357   .     S
N446   C448    1.335   .     S
C447   C538    1.379   .     S
C448   C469    1.374   .     S
C449   C472    1.372   .     S
C449   C450    1.372   .     S
C450   C471    1.375   .     S
N451   Co458   1.980   .     S
N451   C453    1.327   .     S
N451   N1447   1.357   .     S
N452   C454    1.335   .     S
N452   Co732   1.976   .     S
N452   N3760   1.349   1_554 S
C453   C1562   1.379   .     S
C454   C541    1.374   .     S
C455   C544    1.372   .     S
C455   C456    1.372   .     S
C456   C543    1.375   .     S
Co457  N694    1.976   .     S
Co457  N508    1.976   .     S
Co459  N718    1.976   .     S
Co460  N478    1.976   .     S
C461   C464    1.490   .     S
C462   C463    1.481   .     S
C465   C468    1.490   .     S
C466   C467    1.481   .     S
C469   C472    1.490   .     S
C470   C471    1.481   .     S
C473   C3694   1.374   1_554 S
C473   C476    1.490   .     S
C474   C3717   1.379   1_554 S
C474   C475    1.481   .     S
C475   C3696   1.375   1_554 S
C476   C3695   1.372   1_554 S
N477   Co525   1.980   .     S
N477   C479    1.327   .     S
N477   N779    1.357   .     S
N478   C480    1.335   .     S
C479   C802    1.379   .     S
C480   C529    1.374   .     S
C481   C532    1.372   .     S
C481   C482    1.372   .     S
C482   C531    1.375   .     S
N483   Co526   1.980   .     S
N483   C485    1.327   .     S
N484   C486    1.335   .     S
N484   Co323   1.976   1_655 S
N484   N774    1.349   .     S
C485   C534    1.379   .     S
C486   C805    1.374   .     S
C487   C808    1.372   .     S
C487   C488    1.372   .     S
C488   C807    1.375   .     S
N489   Co527   1.980   .     S
N489   C491    1.327   .     S
N490   C492    1.335   .     S
N490   N310    1.349   1_655 S
C491   C538    1.379   .     S
C492   C333    1.374   1_655 S
C493   C336    1.372   1_655 S
C493   C494    1.372   .     S
C494   C335    1.375   1_655 S
N495   Co528   1.980   .     S
N495   C497    1.327   .     S
N495   N3579   1.357   1_654 S
N496   C498    1.335   .     S
N496   Co798   1.976   .     S
N496   N1540   1.349   .     S
C497   C338    1.379   1_655 S
C498   C1629   1.374   .     S
C499   C1632   1.372   .     S
C499   C500    1.372   .     S
C500   C1631   1.375   .     S
N501   Co527   1.980   .     S
N501   C503    1.327   .     S
N501   N755    1.357   .     S
N502   C504    1.335   .     S
N502   Co322   1.976   1_655 S
C503   C806    1.379   .     S
C504   C533    1.374   .     S
C505   C536    1.372   .     S
C505   C506    1.372   .     S
C506   C535    1.375   .     S
N507   Co528   1.980   .     S
N507   C509    1.327   .     S
N508   C510    1.335   .     S
N508   N750    1.349   .     S
C509   C530    1.379   .     S
C510   C801    1.374   .     S
C511   C804    1.372   .     S
C511   C512    1.372   .     S
C512   C803    1.375   .     S
N513   Co525   1.980   .     S
N513   C515    1.327   .     S
N513   N285    1.357   1_655 S
N514   C516    1.335   .     S
C515   C334    1.379   1_655 S
C516   C537    1.374   .     S
C517   C540    1.372   .     S
C517   C518    1.372   .     S
C518   C539    1.375   .     S
N519   Co526   1.980   .     S
N519   C521    1.327   .     S
N519   N1515   1.357   .     S
N520   C522    1.335   .     S
N520   Co800   1.976   .     S
N520   N3556   1.349   1_654 S
C521   C1630   1.379   .     S
C522   C337    1.374   1_655 S
C523   C340    1.372   1_655 S
C523   C524    1.372   .     S
C524   C339    1.375   1_655 S
Co525  N762    1.976   .     S
Co525  N304    1.976   1_655 S
Co527  N786    1.976   .     S
Co528  N274    1.976   1_655 S
C529   C532    1.490   .     S
C530   C531    1.481   .     S
C533   C536    1.490   .     S
C534   C535    1.481   .     S
C537   C540    1.490   .     S
C538   C539    1.481   .     S
C541   C3762   1.374   1_554 S
C541   C544    1.490   .     S
C542   C3785   1.379   1_554 S
C542   C543    1.481   .     S
C543   C3764   1.375   1_554 S
C544   C3763   1.372   1_554 S
N545   Co593   1.980   .     S
N545   C547    1.327   .     S
N545   N847    1.357   .     S
N546   C548    1.335   .     S
N546   Co800   1.976   1_455 S
C547   C870    1.379   .     S
C548   C597    1.374   .     S
C549   C600    1.372   .     S
C549   C550    1.372   .     S
C550   C599    1.375   .     S
N551   Co594   1.980   .     S
N551   C553    1.327   .     S
N552   C554    1.335   .     S
N552   Co663   1.976   .     S
N552   N842    1.349   .     S
C553   C602    1.379   .     S
C554   C873    1.374   .     S
C555   C876    1.372   .     S
C555   C556    1.372   .     S
C556   C875    1.375   .     S
N557   Co595   1.980   .     S
N557   C559    1.327   .     S
N557   N785    1.357   1_455 S
N558   C560    1.335   .     S
N558   N650    1.349   .     S
C559   C606    1.379   .     S
C560   C673    1.374   .     S
C561   C676    1.372   .     S
C561   C562    1.372   .     S
C562   C675    1.375   .     S
N563   Co596   1.980   .     S
N563   C565    1.327   .     S
N563   N3919   1.357   1_554 S
N564   C566    1.335   .     S
N564   Co866   1.976   .     S
N564   N1880   1.349   1_455 S
C565   C678    1.379   .     S
C566   C1697   1.374   .     S
C567   C1700   1.372   .     S
C567   C568    1.372   .     S
C568   C1699   1.375   .     S
N569   Co595   1.980   .     S
N569   C571    1.327   .     S
N569   N823    1.357   .     S
N570   C572    1.335   .     S
N570   Co662   1.976   .     S
C571   C874    1.379   .     S
C572   C601    1.374   .     S
C573   C604    1.372   .     S
C573   C574    1.372   .     S
C574   C603    1.375   .     S
N575   Co596   1.980   .     S
N575   C577    1.327   .     S
N576   C578    1.335   .     S
N576   Co797   1.976   1_455 S
N576   N818    1.349   .     S
C577   C598    1.379   .     S
C578   C869    1.374   .     S
C579   C872    1.372   .     S
C579   C580    1.372   .     S
C580   C871    1.375   .     S
N581   Co593   1.980   .     S
N581   C583    1.327   .     S
N581   N625    1.357   .     S
N582   C584    1.335   .     S
N582   N762    1.349   1_455 S
C583   C674    1.379   .     S
C584   C605    1.374   .     S
C585   C608    1.372   .     S
C585   C586    1.372   .     S
C586   C607    1.375   .     S
N587   Co594   1.980   .     S
N587   C589    1.327   .     S
N587   N1855   1.357   1_455 S
N588   C590    1.335   .     S
N588   Co868   1.976   .     S
N588   N3896   1.349   1_554 S
C589   C1698   1.379   .     S
C590   C677    1.374   .     S
C591   C680    1.372   .     S
C591   C592    1.372   .     S
C592   C679    1.375   .     S
Co593  N830    1.976   .     S
Co593  N644    1.976   .     S
Co594  N774    1.976   1_455 S
Co595  N756    1.976   1_455 S
Co595  N854    1.976   .     S
Co596  N614    1.976   .     S
C597   C600    1.490   .     S
C598   C599    1.481   .     S
C601   C604    1.490   .     S
C602   C603    1.481   .     S
C605   C764    1.374   1_455 S
C605   C608    1.490   .     S
C606   C787    1.379   1_455 S
C606   C607    1.481   .     S
C607   C766    1.375   1_455 S
C608   C765    1.372   1_455 S
C609   C3830   1.374   1_554 S
C609   C794    1.374   1_455 S
C609   C612    1.490   .     S
C610   C769    1.379   1_455 S
C610   C3853   1.379   1_554 S
C610   C611    1.481   .     S
C611   C3832   1.375   1_554 S
C611   C796    1.375   1_455 S
C612   C3831   1.372   1_554 S
C612   C795    1.372   1_455 S
N613   Co661   1.980   .     S
N613   C615    1.327   .     S
N613   N915    1.357   .     S
N614   C616    1.335   .     S
C615   C938    1.379   .     S
C616   C665    1.374   .     S
C617   C668    1.372   .     S
C617   C618    1.372   .     S
C618   C667    1.375   .     S
N619   Co662   1.980   .     S
N619   C621    1.327   .     S
N620   C622    1.335   .     S
N620   Co731   1.976   .     S
N620   N910    1.349   .     S
C621   C670    1.379   .     S
C622   C941    1.374   .     S
C623   C944    1.372   .     S
C623   C624    1.372   .     S
C624   C943    1.375   .     S
N625   Co663   1.980   .     S
N625   C627    1.327   .     S
N626   C628    1.335   .     S
N626   N718    1.349   .     S
C627   C674    1.379   .     S
C628   C741    1.374   .     S
C629   C744    1.372   .     S
C629   C630    1.372   .     S
C630   C743    1.375   .     S
N631   Co664   1.980   .     S
N631   C633    1.327   .     S
N631   N3987   1.357   1_554 S
N632   C634    1.335   .     S
N632   Co934   1.976   .     S
N632   N1676   1.349   .     S
C633   C746    1.379   .     S
C634   C1765   1.374   .     S
C635   C1768   1.372   .     S
C635   C636    1.372   .     S
C636   C1767   1.375   .     S
N637   Co663   1.980   .     S
N637   C639    1.327   .     S
N637   N891    1.357   .     S
N638   C640    1.335   .     S
N638   Co730   1.976   .     S
C639   C942    1.379   .     S
C640   C669    1.374   .     S
C641   C672    1.372   .     S
C641   C642    1.372   .     S
C642   C671    1.375   .     S
N643   Co664   1.980   .     S
N643   C645    1.327   .     S
N644   C646    1.335   .     S
N644   N886    1.349   .     S
C645   C666    1.379   .     S
C646   C937    1.374   .     S
C647   C940    1.372   .     S
C647   C648    1.372   .     S
C648   C939    1.375   .     S
N649   Co661   1.980   .     S
N649   C651    1.327   .     S
N649   N693    1.357   .     S
N650   C652    1.335   .     S
C651   C742    1.379   .     S
C652   C673    1.374   .     S
C653   C676    1.372   .     S
C653   C654    1.372   .     S
C654   C675    1.375   .     S
N655   Co662   1.980   .     S
N655   C657    1.327   .     S
N655   N1651   1.357   .     S
N656   C658    1.335   .     S
N656   Co936   1.976   .     S
N656   N3964   1.349   1_554 S
C657   C1766   1.379   .     S
C658   C745    1.374   .     S
C659   C748    1.372   .     S
C659   C660    1.372   .     S
C660   C747    1.375   .     S
Co661  N898    1.976   .     S
Co661  N712    1.976   .     S
Co663  N922    1.976   .     S
Co664  N682    1.976   .     S
C665   C668    1.490   .     S
C666   C667    1.481   .     S
C669   C672    1.490   .     S
C670   C671    1.481   .     S
C673   C676    1.490   .     S
C674   C675    1.481   .     S
C677   C3898   1.374   1_554 S
C677   C680    1.490   .     S
C678   C3921   1.379   1_554 S
C678   C679    1.481   .     S
C679   C3900   1.375   1_554 S
C680   C3899   1.372   1_554 S
N681   Co729   1.980   .     S
N681   C683    1.327   .     S
N681   N983    1.357   .     S
N682   C684    1.335   .     S
C683   C1006   1.379   .     S
C684   C733    1.374   .     S
C685   C736    1.372   .     S
C685   C686    1.372   .     S
C686   C735    1.375   .     S
N687   Co730   1.980   .     S
N687   C689    1.327   .     S
N688   C690    1.335   .     S
N688   Co799   1.976   .     S
N688   N978    1.349   .     S
C689   C738    1.379   .     S
C690   C1009   1.374   .     S
C691   C1012   1.372   .     S
C691   C692    1.372   .     S
C692   C1011   1.375   .     S
N693   Co731   1.980   .     S
N693   C695    1.327   .     S
N694   C696    1.335   .     S
N694   N786    1.349   .     S
C695   C742    1.379   .     S
C696   C809    1.374   .     S
C697   C812    1.372   .     S
C697   C698    1.372   .     S
C698   C811    1.375   .     S
N699   Co732   1.980   .     S
N699   C701    1.327   .     S
N699   N4055   1.357   1_554 S
N700   C702    1.335   .     S
N700   Co1002  1.976   .     S
N700   N1744   1.349   .     S
C701   C814    1.379   .     S
C702   C1833   1.374   .     S
C703   C1836   1.372   .     S
C703   C704    1.372   .     S
C704   C1835   1.375   .     S
N705   Co731   1.980   .     S
N705   C707    1.327   .     S
N705   N959    1.357   .     S
N706   C708    1.335   .     S
N706   Co798   1.976   .     S
C707   C1010   1.379   .     S
C708   C737    1.374   .     S
C709   C740    1.372   .     S
C709   C710    1.372   .     S
C710   C739    1.375   .     S
N711   Co732   1.980   .     S
N711   C713    1.327   .     S
N712   C714    1.335   .     S
N712   N954    1.349   .     S
C713   C734    1.379   .     S
C714   C1005   1.374   .     S
C715   C1008   1.372   .     S
C715   C716    1.372   .     S
C716   C1007   1.375   .     S
N717   Co729   1.980   .     S
N717   C719    1.327   .     S
N717   N761    1.357   .     S
N718   C720    1.335   .     S
C719   C810    1.379   .     S
C720   C741    1.374   .     S
C721   C744    1.372   .     S
C721   C722    1.372   .     S
C722   C743    1.375   .     S
N723   Co730   1.980   .     S
N723   C725    1.327   .     S
N723   N1719   1.357   .     S
N724   C726    1.335   .     S
N724   Co1004  1.976   .     S
N724   N4032   1.349   1_554 S
C725   C1834   1.379   .     S
C726   C813    1.374   .     S
C727   C816    1.372   .     S
C727   C728    1.372   .     S
C728   C815    1.375   .     S
Co729  N966    1.976   .     S
Co729  N780    1.976   .     S
Co731  N990    1.976   .     S
Co732  N750    1.976   .     S
C733   C736    1.490   .     S
C734   C735    1.481   .     S
C737   C740    1.490   .     S
C738   C739    1.481   .     S
C741   C744    1.490   .     S
C742   C743    1.481   .     S
C745   C3966   1.374   1_554 S
C745   C748    1.490   .     S
C746   C3989   1.379   1_554 S
C746   C747    1.481   .     S
C747   C3968   1.375   1_554 S
C748   C3967   1.372   1_554 S
N749   Co797   1.980   .     S
N749   C751    1.327   .     S
N749   N1051   1.357   .     S
N750   C752    1.335   .     S
C751   C1074   1.379   .     S
C752   C801    1.374   .     S
C753   C804    1.372   .     S
C753   C754    1.372   .     S
C754   C803    1.375   .     S
N755   Co798   1.980   .     S
N755   C757    1.327   .     S
N756   C758    1.335   .     S
N756   Co595   1.976   1_655 S
N756   N1046   1.349   .     S
C757   C806    1.379   .     S
C758   C1077   1.374   .     S
C759   C1080   1.372   .     S
C759   C760    1.372   .     S
C760   C1079   1.375   .     S
N761   Co799   1.980   .     S
N761   C763    1.327   .     S
N762   C764    1.335   .     S
N762   N582    1.349   1_655 S
C763   C810    1.379   .     S
C764   C605    1.374   1_655 S
C765   C608    1.372   1_655 S
C765   C766    1.372   .     S
C766   C607    1.375   1_655 S
N767   Co800   1.980   .     S
N767   C769    1.327   .     S
N767   N3851   1.357   1_654 S
N768   C770    1.335   .     S
N768   Co1070  1.976   .     S
N768   N1812   1.349   .     S
C769   C610    1.379   1_655 S
C770   C1901   1.374   .     S
C771   C1904   1.372   .     S
C771   C772    1.372   .     S
C772   C1903   1.375   .     S
N773   Co799   1.980   .     S
N773   C775    1.327   .     S
N773   N1027   1.357   .     S
N774   C776    1.335   .     S
N774   Co594   1.976   1_655 S
C775   C1078   1.379   .     S
C776   C805    1.374   .     S
C777   C808    1.372   .     S
C777   C778    1.372   .     S
C778   C807    1.375   .     S
N779   Co800   1.980   .     S
N779   C781    1.327   .     S
N780   C782    1.335   .     S
N780   N1022   1.349   .     S
C781   C802    1.379   .     S
C782   C1073   1.374   .     S
C783   C1076   1.372   .     S
C783   C784    1.372   .     S
C784   C1075   1.375   .     S
N785   Co797   1.980   .     S
N785   C787    1.327   .     S
N785   N557    1.357   1_655 S
N786   C788    1.335   .     S
C787   C606    1.379   1_655 S
C788   C809    1.374   .     S
C789   C812    1.372   .     S
C789   C790    1.372   .     S
C790   C811    1.375   .     S
N791   Co798   1.980   .     S
N791   C793    1.327   .     S
N791   N1787   1.357   .     S
N792   C794    1.335   .     S
N792   Co1072  1.976   .     S
N792   N3828   1.349   1_654 S
C793   C1902   1.379   .     S
C794   C609    1.374   1_655 S
C795   C612    1.372   1_655 S
C795   C796    1.372   .     S
C796   C611    1.375   1_655 S
Co797  N1034   1.976   .     S
Co797  N576    1.976   1_655 S
Co799  N1058   1.976   .     S
Co800  N546    1.976   1_655 S
C801   C804    1.490   .     S
C802   C803    1.481   .     S
C805   C808    1.490   .     S
C806   C807    1.481   .     S
C809   C812    1.490   .     S
C810   C811    1.481   .     S
C813   C4034   1.374   1_554 S
C813   C816    1.490   .     S
C814   C4057   1.379   1_554 S
C814   C815    1.481   .     S
C815   C4036   1.375   1_554 S
C816   C4035   1.372   1_554 S
N817   Co865   1.980   .     S
N817   C819    1.327   .     S
N817   N31     1.357   1_565 S
N818   C820    1.335   .     S
N818   Co1072  1.976   1_455 S
C819   C54     1.379   1_565 S
C820   C869    1.374   .     S
C821   C872    1.372   .     S
C821   C822    1.372   .     S
C822   C871    1.375   .     S
N823   Co866   1.980   .     S
N823   C825    1.327   .     S
N824   C826    1.335   .     S
N824   Co935   1.976   .     S
N824   N26     1.349   1_565 S
C825   C874    1.379   .     S
C826   C57     1.374   1_565 S
C827   C60     1.372   1_565 S
C827   C828    1.372   .     S
C828   C59     1.375   1_565 S
N829   Co867   1.980   .     S
N829   C831    1.327   .     S
N829   N1057   1.357   1_455 S
N830   C832    1.335   .     S
N830   N922    1.349   .     S
C831   C878    1.379   .     S
C832   C945    1.374   .     S
C833   C948    1.372   .     S
C833   C834    1.372   .     S
C834   C947    1.375   .     S
N835   Co868   1.980   .     S
N835   C837    1.327   .     S
N835   N4191   1.357   1_554 S
N836   C838    1.335   .     S
N836   Co50    1.976   1_565 S
N836   N2152   1.349   1_455 S
C837   C950    1.379   .     S
C838   C1969   1.374   .     S
C839   C1972   1.372   .     S
C839   C840    1.372   .     S
C840   C1971   1.375   .     S
N841   Co867   1.980   .     S
N841   C843    1.327   .     S
N841   N7      1.357   1_565 S
N842   C844    1.335   .     S
N842   Co934   1.976   .     S
C843   C58     1.379   1_565 S
C844   C873    1.374   .     S
C845   C876    1.372   .     S
C845   C846    1.372   .     S
C846   C875    1.375   .     S
N847   Co868   1.980   .     S
N847   C849    1.327   .     S
N848   C850    1.335   .     S
N848   Co1069  1.976   1_455 S
N848   N2      1.349   1_565 S
C849   C870    1.379   .     S
C850   C53     1.374   1_565 S
C851   C56     1.372   1_565 S
C851   C852    1.372   .     S
C852   C55     1.375   1_565 S
N853   Co865   1.980   .     S
N853   C855    1.327   .     S
N853   N897    1.357   .     S
N854   C856    1.335   .     S
N854   N1034   1.349   1_455 S
C855   C946    1.379   .     S
C856   C877    1.374   .     S
C857   C880    1.372   .     S
C857   C858    1.372   .     S
C858   C879    1.375   .     S
N859   Co866   1.980   .     S
N859   C861    1.327   .     S
N859   N2127   1.357   1_455 S
N860   C862    1.335   .     S
N860   Co52    1.976   1_565 S
N860   N4168   1.349   1_554 S
C861   C1970   1.379   .     S
C862   C949    1.374   .     S
C863   C952    1.372   .     S
C863   C864    1.372   .     S
C864   C951    1.375   .     S
Co865  N14     1.976   1_565 S
Co865  N916    1.976   .     S
Co866  N1046   1.976   1_455 S
Co867  N1028   1.976   1_455 S
Co867  N38     1.976   1_565 S
Co868  N886    1.976   .     S
C869   C872    1.490   .     S
C870   C871    1.481   .     S
C873   C876    1.490   .     S
C874   C875    1.481   .     S
C877   C1036   1.374   1_455 S
C877   C880    1.490   .     S
C878   C1059   1.379   1_455 S
C878   C879    1.481   .     S
C879   C1038   1.375   1_455 S
C880   C1037   1.372   1_455 S
C881   C4102   1.374   1_554 S
C881   C1066   1.374   1_455 S
C881   C884    1.490   .     S
C882   C1041   1.379   1_455 S
C882   C4125   1.379   1_554 S
C882   C883    1.481   .     S
C883   C4104   1.375   1_554 S
C883   C1068   1.375   1_455 S
C884   C4103   1.372   1_554 S
C884   C1067   1.372   1_455 S
N885   Co933   1.980   .     S
N885   C887    1.327   .     S
N885   N99     1.357   1_565 S
N886   C888    1.335   .     S
C887   C122    1.379   1_565 S
C888   C937    1.374   .     S
C889   C940    1.372   .     S
C889   C890    1.372   .     S
C890   C939    1.375   .     S
N891   Co934   1.980   .     S
N891   C893    1.327   .     S
N892   C894    1.335   .     S
N892   Co1003  1.976   .     S
N892   N94     1.349   1_565 S
C893   C942    1.379   .     S
C894   C125    1.374   1_565 S
C895   C128    1.372   1_565 S
C895   C896    1.372   .     S
C896   C127    1.375   1_565 S
N897   Co935   1.980   .     S
N897   C899    1.327   .     S
N898   C900    1.335   .     S
N898   N990    1.349   .     S
C899   C946    1.379   .     S
C900   C1013   1.374   .     S
C901   C1016   1.372   .     S
C901   C902    1.372   .     S
C902   C1015   1.375   .     S
N903   Co936   1.980   .     S
N903   C905    1.327   .     S
N903   N4259   1.357   1_554 S
N904   C906    1.335   .     S
N904   Co118   1.976   1_565 S
N904   N1948   1.349   .     S
C905   C1018   1.379   .     S
C906   C2037   1.374   .     S
C907   C2040   1.372   .     S
C907   C908    1.372   .     S
C908   C2039   1.375   .     S
N909   Co935   1.980   .     S
N909   C911    1.327   .     S
N909   N75     1.357   1_565 S
N910   C912    1.335   .     S
N910   Co1002  1.976   .     S
C911   C126    1.379   1_565 S
C912   C941    1.374   .     S
C913   C944    1.372   .     S
C913   C914    1.372   .     S
C914   C943    1.375   .     S
N915   Co936   1.980   .     S
N915   C917    1.327   .     S
N916   C918    1.335   .     S
N916   N70     1.349   1_565 S
C917   C938    1.379   .     S
C918   C121    1.374   1_565 S
C919   C124    1.372   1_565 S
C919   C920    1.372   .     S
C920   C123    1.375   1_565 S
N921   Co933   1.980   .     S
N921   C923    1.327   .     S
N921   N965    1.357   .     S
N922   C924    1.335   .     S
C923   C1014   1.379   .     S
C924   C945    1.374   .     S
C925   C948    1.372   .     S
C925   C926    1.372   .     S
C926   C947    1.375   .     S
N927   Co934   1.980   .     S
N927   C929    1.327   .     S
N927   N1923   1.357   .     S
N928   C930    1.335   .     S
N928   Co120   1.976   1_565 S
N928   N4236   1.349   1_554 S
C929   C2038   1.379   .     S
C930   C1017   1.374   .     S
C931   C1020   1.372   .     S
C931   C932    1.372   .     S
C932   C1019   1.375   .     S
Co933  N82     1.976   1_565 S
Co933  N984    1.976   .     S
Co935  N106    1.976   1_565 S
Co936  N954    1.976   .     S
C937   C940    1.490   .     S
C938   C939    1.481   .     S
C941   C944    1.490   .     S
C942   C943    1.481   .     S
C945   C948    1.490   .     S
C946   C947    1.481   .     S
C949   C4170   1.374   1_554 S
C949   C952    1.490   .     S
C950   C4193   1.379   1_554 S
C950   C951    1.481   .     S
C951   C4172   1.375   1_554 S
C952   C4171   1.372   1_554 S
N953   Co1001  1.980   .     S
N953   C955    1.327   .     S
N953   N167    1.357   1_565 S
N954   C956    1.335   .     S
C955   C190    1.379   1_565 S
C956   C1005   1.374   .     S
C957   C1008   1.372   .     S
C957   C958    1.372   .     S
C958   C1007   1.375   .     S
N959   Co1002  1.980   .     S
N959   C961    1.327   .     S
N960   C962    1.335   .     S
N960   Co1071  1.976   .     S
N960   N162    1.349   1_565 S
C961   C1010   1.379   .     S
C962   C193    1.374   1_565 S
C963   C196    1.372   1_565 S
C963   C964    1.372   .     S
C964   C195    1.375   1_565 S
N965   Co1003  1.980   .     S
N965   C967    1.327   .     S
N966   C968    1.335   .     S
N966   N1058   1.349   .     S
C967   C1014   1.379   .     S
C968   C1081   1.374   .     S
C969   C1084   1.372   .     S
C969   C970    1.372   .     S
C970   C1083   1.375   .     S
N971   Co1004  1.980   .     S
N971   C973    1.327   .     S
N971   N4327   1.357   1_554 S
N972   C974    1.335   .     S
N972   Co186   1.976   1_565 S
N972   N2016   1.349   .     S
C973   C1086   1.379   .     S
C974   C2105   1.374   .     S
C975   C2108   1.372   .     S
C975   C976    1.372   .     S
C976   C2107   1.375   .     S
N977   Co1003  1.980   .     S
N977   C979    1.327   .     S
N977   N143    1.357   1_565 S
N978   C980    1.335   .     S
N978   Co1070  1.976   .     S
C979   C194    1.379   1_565 S
C980   C1009   1.374   .     S
C981   C1012   1.372   .     S
C981   C982    1.372   .     S
C982   C1011   1.375   .     S
N983   Co1004  1.980   .     S
N983   C985    1.327   .     S
N984   C986    1.335   .     S
N984   N138    1.349   1_565 S
C985   C1006   1.379   .     S
C986   C189    1.374   1_565 S
C987   C192    1.372   1_565 S
C987   C988    1.372   .     S
C988   C191    1.375   1_565 S
N989   Co1001  1.980   .     S
N989   C991    1.327   .     S
N989   N1033   1.357   .     S
N990   C992    1.335   .     S
C991   C1082   1.379   .     S
C992   C1013   1.374   .     S
C993   C1016   1.372   .     S
C993   C994    1.372   .     S
C994   C1015   1.375   .     S
N995   Co1002  1.980   .     S
N995   C997    1.327   .     S
N995   N1991   1.357   .     S
N996   C998    1.335   .     S
N996   Co188   1.976   1_565 S
N996   N4304   1.349   1_554 S
C997   C2106   1.379   .     S
C998   C1085   1.374   .     S
C999   C1088   1.372   .     S
C999   C1000   1.372   .     S
C1000  C1087   1.375   .     S
Co1001 N150    1.976   1_565 S
Co1001 N1052   1.976   .     S
Co1003 N174    1.976   1_565 S
Co1004 N1022   1.976   .     S
C1005  C1008   1.490   .     S
C1006  C1007   1.481   .     S
C1009  C1012   1.490   .     S
C1010  C1011   1.481   .     S
C1013  C1016   1.490   .     S
C1014  C1015   1.481   .     S
C1017  C4238   1.374   1_554 S
C1017  C1020   1.490   .     S
C1018  C4261   1.379   1_554 S
C1018  C1019   1.481   .     S
C1019  C4240   1.375   1_554 S
C1020  C4239   1.372   1_554 S
N1021  Co1069  1.980   .     S
N1021  C1023   1.327   .     S
N1021  N235    1.357   1_565 S
N1022  C1024   1.335   .     S
C1023  C258    1.379   1_565 S
C1024  C1073   1.374   .     S
C1025  C1076   1.372   .     S
C1025  C1026   1.372   .     S
C1026  C1075   1.375   .     S
N1027  Co1070  1.980   .     S
N1027  C1029   1.327   .     S
N1028  C1030   1.335   .     S
N1028  Co867   1.976   1_655 S
N1028  N230    1.349   1_565 S
C1029  C1078   1.379   .     S
C1030  C261    1.374   1_565 S
C1031  C264    1.372   1_565 S
C1031  C1032   1.372   .     S
C1032  C263    1.375   1_565 S
N1033  Co1071  1.980   .     S
N1033  C1035   1.327   .     S
N1034  C1036   1.335   .     S
N1034  N854    1.349   1_655 S
C1035  C1082   1.379   .     S
C1036  C877    1.374   1_655 S
C1037  C880    1.372   1_655 S
C1037  C1038   1.372   .     S
C1038  C879    1.375   1_655 S
N1039  Co1072  1.980   .     S
N1039  C1041   1.327   .     S
N1039  N4123   1.357   1_654 S
N1040  C1042   1.335   .     S
N1040  Co254   1.976   1_565 S
N1040  N2084   1.349   .     S
C1041  C882    1.379   1_655 S
C1042  C2173   1.374   .     S
C1043  C2176   1.372   .     S
C1043  C1044   1.372   .     S
C1044  C2175   1.375   .     S
N1045  Co1071  1.980   .     S
N1045  C1047   1.327   .     S
N1045  N211    1.357   1_565 S
N1046  C1048   1.335   .     S
N1046  Co866   1.976   1_655 S
C1047  C262    1.379   1_565 S
C1048  C1077   1.374   .     S
C1049  C1080   1.372   .     S
C1049  C1050   1.372   .     S
C1050  C1079   1.375   .     S
N1051  Co1072  1.980   .     S
N1051  C1053   1.327   .     S
N1052  C1054   1.335   .     S
N1052  N206    1.349   1_565 S
C1053  C1074   1.379   .     S
C1054  C257    1.374   1_565 S
C1055  C260    1.372   1_565 S
C1055  C1056   1.372   .     S
C1056  C259    1.375   1_565 S
N1057  Co1069  1.980   .     S
N1057  C1059   1.327   .     S
N1057  N829    1.357   1_655 S
N1058  C1060   1.335   .     S
C1059  C878    1.379   1_655 S
C1060  C1081   1.374   .     S
C1061  C1084   1.372   .     S
C1061  C1062   1.372   .     S
C1062  C1083   1.375   .     S
N1063  Co1070  1.980   .     S
N1063  C1065   1.327   .     S
N1063  N2059   1.357   .     S
N1064  C1066   1.335   .     S
N1064  Co256   1.976   1_565 S
N1064  N4100   1.349   1_654 S
C1065  C2174   1.379   .     S
C1066  C881    1.374   1_655 S
C1067  C884    1.372   1_655 S
C1067  C1068   1.372   .     S
C1068  C883    1.375   1_655 S
Co1069 N218    1.976   1_565 S
Co1069 N848    1.976   1_655 S
Co1071 N242    1.976   1_565 S
Co1072 N818    1.976   1_655 S
C1073  C1076   1.490   .     S
C1074  C1075   1.481   .     S
C1077  C1080   1.490   .     S
C1078  C1079   1.481   .     S
C1081  C1084   1.490   .     S
C1082  C1083   1.481   .     S
C1085  C4306   1.374   1_554 S
C1085  C1088   1.490   .     S
C1086  C4329   1.379   1_554 S
C1086  C1087   1.481   .     S
C1087  C4308   1.375   1_554 S
C1088  C4307   1.372   1_554 S
N1089  Co1137  1.980   .     S
N1089  C1091   1.327   .     S
N1089  N1391   1.357   .     S
N1090  C1092   1.335   .     S
N1090  Co1344  1.976   1_455 S
N1090  N1936   1.349   1_545 S
C1091  C1414   1.379   .     S
C1092  C1141   1.374   .     S
C1093  C1144   1.372   .     S
C1093  C1094   1.372   .     S
C1094  C1143   1.375   .     S
N1095  Co1138  1.980   .     S
N1095  C1097   1.327   .     S
N1095  N1929   1.357   1_545 S
N1096  C1098   1.335   .     S
N1096  Co1207  1.976   .     S
N1096  N1386   1.349   .     S
C1097  C1146   1.379   .     S
C1098  C1417   1.374   .     S
C1099  C1420   1.372   .     S
C1099  C1100   1.372   .     S
C1100  C1419   1.375   .     S
N1101  Co1139  1.980   .     S
N1101  C1103   1.327   .     S
N1101  N1329   1.357   1_455 S
N1102  C1104   1.335   .     S
N1102  Co1953  1.976   1_545 S
N1102  N1194   1.349   .     S
C1103  C1150   1.379   .     S
C1104  C1217   1.374   .     S
C1105  C1220   1.372   .     S
C1105  C1106   1.372   .     S
C1106  C1219   1.375   .     S
N1107  Co1140  1.980   .     S
N1107  C1109   1.327   .     S
N1108  C1110   1.335   .     S
N1108  Co1410  1.976   .     S
N1108  N2424   1.349   1_455 S
C1109  C1222   1.379   .     S
C1110  C2241   1.374   .     S
C1111  C2244   1.372   .     S
C1111  C1112   1.372   .     S
C1112  C2243   1.375   .     S
N1113  Co1139  1.980   .     S
N1113  C1115   1.327   .     S
N1113  N1367   1.357   .     S
N1114  C1116   1.335   .     S
N1114  Co1206  1.976   .     S
N1114  N1912   1.349   1_545 S
C1115  C1418   1.379   .     S
C1116  C1145   1.374   .     S
C1117  C1148   1.372   .     S
C1117  C1118   1.372   .     S
C1118  C1147   1.375   .     S
N1119  Co1140  1.980   .     S
N1119  C1121   1.327   .     S
N1119  N1905   1.357   1_545 S
N1120  C1122   1.335   .     S
N1120  Co1341  1.976   1_455 S
N1120  N1362   1.349   .     S
C1121  C1142   1.379   .     S
C1122  C1413   1.374   .     S
C1123  C1416   1.372   .     S
C1123  C1124   1.372   .     S
C1124  C1415   1.375   .     S
N1125  Co1137  1.980   .     S
N1125  C1127   1.327   .     S
N1125  N1169   1.357   .     S
N1126  C1128   1.335   .     S
N1126  Co1955  1.976   1_545 S
N1126  N1306   1.349   1_455 S
C1127  C1218   1.379   .     S
C1128  C1149   1.374   .     S
C1129  C1152   1.372   .     S
C1129  C1130   1.372   .     S
C1130  C1151   1.375   .     S
N1131  Co1138  1.980   .     S
N1131  C1133   1.327   .     S
N1131  N2399   1.357   1_455 S
N1132  C1134   1.335   .     S
N1132  Co1412  1.976   .     S
C1133  C2242   1.379   .     S
C1134  C1221   1.374   .     S
C1135  C1224   1.372   .     S
C1135  C1136   1.372   .     S
C1136  C1223   1.375   .     S
Co1137 N1374   1.976   .     S
Co1137 N1188   1.976   .     S
Co1138 N1924   1.976   1_545 S
Co1138 N1318   1.976   1_455 S
Co1139 N1300   1.976   1_455 S
Co1139 N1398   1.976   .     S
Co1140 N1158   1.976   .     S
Co1140 N1948   1.976   1_545 S
C1141  C1938   1.374   1_545 S
C1141  C1144   1.490   .     S
C1142  C1907   1.379   1_545 S
C1142  C1143   1.481   .     S
C1143  C1940   1.375   1_545 S
C1144  C1939   1.372   1_545 S
C1145  C1914   1.374   1_545 S
C1145  C1148   1.490   .     S
C1146  C1931   1.379   1_545 S
C1146  C1147   1.481   .     S
C1147  C1916   1.375   1_545 S
C1148  C1915   1.372   1_545 S
C1149  C1308   1.374   1_455 S
C1149  C1152   1.490   .     S
C1150  C1331   1.379   1_455 S
C1150  C1151   1.481   .     S
C1151  C1310   1.375   1_455 S
C1152  C1309   1.372   1_455 S
C1153  C1338   1.374   1_455 S
C1153  C1156   1.490   .     S
C1154  C1313   1.379   1_455 S
C1154  C1155   1.481   .     S
C1155  C1340   1.375   1_455 S
C1156  C1339   1.372   1_455 S
N1157  Co1205  1.980   .     S
N1157  C1159   1.327   .     S
N1157  N1459   1.357   .     S
N1158  C1160   1.335   .     S
N1158  N2004   1.349   1_545 S
C1159  C1482   1.379   .     S
C1160  C1209   1.374   .     S
C1161  C1212   1.372   .     S
C1161  C1162   1.372   .     S
C1162  C1211   1.375   .     S
N1163  Co1206  1.980   .     S
N1163  C1165   1.327   .     S
N1163  N1997   1.357   1_545 S
N1164  C1166   1.335   .     S
N1164  Co1275  1.976   .     S
N1164  N1454   1.349   .     S
C1165  C1214   1.379   .     S
C1166  C1485   1.374   .     S
C1167  C1488   1.372   .     S
C1167  C1168   1.372   .     S
C1168  C1487   1.375   .     S
N1169  Co1207  1.980   .     S
N1169  C1171   1.327   .     S
N1170  C1172   1.335   .     S
N1170  Co2021  1.976   1_545 S
N1170  N1262   1.349   .     S
C1171  C1218   1.379   .     S
C1172  C1285   1.374   .     S
C1173  C1288   1.372   .     S
C1173  C1174   1.372   .     S
C1174  C1287   1.375   .     S
N1175  Co1208  1.980   .     S
N1175  C1177   1.327   .     S
N1176  C1178   1.335   .     S
N1176  Co1478  1.976   .     S
N1176  N2220   1.349   .     S
C1177  C1290   1.379   .     S
C1178  C2309   1.374   .     S
C1179  C2312   1.372   .     S
C1179  C1180   1.372   .     S
C1180  C2311   1.375   .     S
N1181  Co1207  1.980   .     S
N1181  C1183   1.327   .     S
N1181  N1435   1.357   .     S
N1182  C1184   1.335   .     S
N1182  Co1274  1.976   .     S
N1182  N1980   1.349   1_545 S
C1183  C1486   1.379   .     S
C1184  C1213   1.374   .     S
C1185  C1216   1.372   .     S
C1185  C1186   1.372   .     S
C1186  C1215   1.375   .     S
N1187  Co1208  1.980   .     S
N1187  C1189   1.327   .     S
N1187  N1973   1.357   1_545 S
N1188  C1190   1.335   .     S
N1188  N1430   1.349   .     S
C1189  C1210   1.379   .     S
C1190  C1481   1.374   .     S
C1191  C1484   1.372   .     S
C1191  C1192   1.372   .     S
C1192  C1483   1.375   .     S
N1193  Co1205  1.980   .     S
N1193  C1195   1.327   .     S
N1193  N1237   1.357   .     S
N1194  C1196   1.335   .     S
N1194  Co2023  1.976   1_545 S
C1195  C1286   1.379   .     S
C1196  C1217   1.374   .     S
C1197  C1220   1.372   .     S
C1197  C1198   1.372   .     S
C1198  C1219   1.375   .     S
N1199  Co1206  1.980   .     S
N1199  C1201   1.327   .     S
N1199  N2195   1.357   .     S
N1200  C1202   1.335   .     S
N1200  Co1480  1.976   .     S
C1201  C2310   1.379   .     S
C1202  C1289   1.374   .     S
C1203  C1292   1.372   .     S
C1203  C1204   1.372   .     S
C1204  C1291   1.375   .     S
Co1205 N1442   1.976   .     S
Co1205 N1256   1.976   .     S
Co1206 N1992   1.976   1_545 S
Co1207 N1466   1.976   .     S
Co1208 N1226   1.976   .     S
Co1208 N2016   1.976   1_545 S
C1209  C2006   1.374   1_545 S
C1209  C1212   1.490   .     S
C1210  C1975   1.379   1_545 S
C1210  C1211   1.481   .     S
C1211  C2008   1.375   1_545 S
C1212  C2007   1.372   1_545 S
C1213  C1982   1.374   1_545 S
C1213  C1216   1.490   .     S
C1214  C1999   1.379   1_545 S
C1214  C1215   1.481   .     S
C1215  C1984   1.375   1_545 S
C1216  C1983   1.372   1_545 S
C1217  C1220   1.490   .     S
C1218  C1219   1.481   .     S
C1221  C1224   1.490   .     S
C1222  C1223   1.481   .     S
N1225  Co1273  1.980   .     S
N1225  C1227   1.327   .     S
N1225  N1527   1.357   .     S
N1226  C1228   1.335   .     S
N1226  N2072   1.349   1_545 S
C1227  C1550   1.379   .     S
C1228  C1277   1.374   .     S
C1229  C1280   1.372   .     S
C1229  C1230   1.372   .     S
C1230  C1279   1.375   .     S
N1231  Co1274  1.980   .     S
N1231  C1233   1.327   .     S
N1231  N2065   1.357   1_545 S
N1232  C1234   1.335   .     S
N1232  Co1343  1.976   .     S
N1232  N1522   1.349   .     S
C1233  C1282   1.379   .     S
C1234  C1553   1.374   .     S
C1235  C1556   1.372   .     S
C1235  C1236   1.372   .     S
C1236  C1555   1.375   .     S
N1237  Co1275  1.980   .     S
N1237  C1239   1.327   .     S
N1238  C1240   1.335   .     S
N1238  Co2089  1.976   1_545 S
N1238  N1330   1.349   .     S
C1239  C1286   1.379   .     S
C1240  C1353   1.374   .     S
C1241  C1356   1.372   .     S
C1241  C1242   1.372   .     S
C1242  C1355   1.375   .     S
N1243  Co1276  1.980   .     S
N1243  C1245   1.327   .     S
N1244  C1246   1.335   .     S
N1244  Co1546  1.976   .     S
N1244  N2288   1.349   .     S
C1245  C1358   1.379   .     S
C1246  C2377   1.374   .     S
C1247  C2380   1.372   .     S
C1247  C1248   1.372   .     S
C1248  C2379   1.375   .     S
N1249  Co1275  1.980   .     S
N1249  C1251   1.327   .     S
N1249  N1503   1.357   .     S
N1250  C1252   1.335   .     S
N1250  Co1342  1.976   .     S
N1250  N2048   1.349   1_545 S
C1251  C1554   1.379   .     S
C1252  C1281   1.374   .     S
C1253  C1284   1.372   .     S
C1253  C1254   1.372   .     S
C1254  C1283   1.375   .     S
N1255  Co1276  1.980   .     S
N1255  C1257   1.327   .     S
N1255  N2041   1.357   1_545 S
N1256  C1258   1.335   .     S
N1256  N1498   1.349   .     S
C1257  C1278   1.379   .     S
C1258  C1549   1.374   .     S
C1259  C1552   1.372   .     S
C1259  C1260   1.372   .     S
C1260  C1551   1.375   .     S
N1261  Co1273  1.980   .     S
N1261  C1263   1.327   .     S
N1261  N1305   1.357   .     S
N1262  C1264   1.335   .     S
N1262  Co2091  1.976   1_545 S
C1263  C1354   1.379   .     S
C1264  C1285   1.374   .     S
C1265  C1288   1.372   .     S
C1265  C1266   1.372   .     S
C1266  C1287   1.375   .     S
N1267  Co1274  1.980   .     S
N1267  C1269   1.327   .     S
N1267  N2263   1.357   .     S
N1268  C1270   1.335   .     S
N1268  Co1548  1.976   .     S
C1269  C2378   1.379   .     S
C1270  C1357   1.374   .     S
C1271  C1360   1.372   .     S
C1271  C1272   1.372   .     S
C1272  C1359   1.375   .     S
Co1273 N1510   1.976   .     S
Co1273 N1324   1.976   .     S
Co1274 N2060   1.976   1_545 S
Co1275 N1534   1.976   .     S
Co1276 N1294   1.976   .     S
Co1276 N2084   1.976   1_545 S
C1277  C2074   1.374   1_545 S
C1277  C1280   1.490   .     S
C1278  C2043   1.379   1_545 S
C1278  C1279   1.481   .     S
C1279  C2076   1.375   1_545 S
C1280  C2075   1.372   1_545 S
C1281  C2050   1.374   1_545 S
C1281  C1284   1.490   .     S
C1282  C2067   1.379   1_545 S
C1282  C1283   1.481   .     S
C1283  C2052   1.375   1_545 S
C1284  C2051   1.372   1_545 S
C1285  C1288   1.490   .     S
C1286  C1287   1.481   .     S
C1289  C1292   1.490   .     S
C1290  C1291   1.481   .     S
N1293  Co1341  1.980   .     S
N1293  C1295   1.327   .     S
N1293  N1595   1.357   .     S
N1294  C1296   1.335   .     S
N1294  N2140   1.349   1_545 S
C1295  C1618   1.379   .     S
C1296  C1345   1.374   .     S
C1297  C1348   1.372   .     S
C1297  C1298   1.372   .     S
C1298  C1347   1.375   .     S
N1299  Co1342  1.980   .     S
N1299  C1301   1.327   .     S
N1299  N2133   1.357   1_545 S
N1300  C1302   1.335   .     S
N1300  Co1139  1.976   1_655 S
N1300  N1590   1.349   .     S
C1301  C1350   1.379   .     S
C1302  C1621   1.374   .     S
C1303  C1624   1.372   .     S
C1303  C1304   1.372   .     S
C1304  C1623   1.375   .     S
N1305  Co1343  1.980   .     S
N1305  C1307   1.327   .     S
N1306  C1308   1.335   .     S
N1306  Co2157  1.976   1_545 S
N1306  N1126   1.349   1_655 S
C1307  C1354   1.379   .     S
C1308  C1149   1.374   1_655 S
C1309  C1152   1.372   1_655 S
C1309  C1310   1.372   .     S
C1310  C1151   1.375   1_655 S
N1311  Co1344  1.980   .     S
N1311  C1313   1.327   .     S
N1311  N43     1.357   1_655 S
N1312  C1314   1.335   .     S
N1312  Co1614  1.976   .     S
N1312  N2356   1.349   .     S
C1313  C1154   1.379   1_655 S
C1314  C2445   1.374   .     S
C1315  C2448   1.372   .     S
C1315  C1316   1.372   .     S
C1316  C2447   1.375   .     S
N1317  Co1343  1.980   .     S
N1317  C1319   1.327   .     S
N1317  N1571   1.357   .     S
N1318  C1320   1.335   .     S
N1318  Co1138  1.976   1_655 S
N1318  N2116   1.349   1_545 S
C1319  C1622   1.379   .     S
C1320  C1349   1.374   .     S
C1321  C1352   1.372   .     S
C1321  C1322   1.372   .     S
C1322  C1351   1.375   .     S
N1323  Co1344  1.980   .     S
N1323  C1325   1.327   .     S
N1323  N2109   1.357   1_545 S
N1324  C1326   1.335   .     S
N1324  N1566   1.349   .     S
C1325  C1346   1.379   .     S
C1326  C1617   1.374   .     S
C1327  C1620   1.372   .     S
C1327  C1328   1.372   .     S
C1328  C1619   1.375   .     S
N1329  Co1341  1.980   .     S
N1329  C1331   1.327   .     S
N1329  N1101   1.357   1_655 S
N1330  C1332   1.335   .     S
N1330  Co2159  1.976   1_545 S
C1331  C1150   1.379   1_655 S
C1332  C1353   1.374   .     S
C1333  C1356   1.372   .     S
C1333  C1334   1.372   .     S
C1334  C1355   1.375   .     S
N1335  Co1342  1.980   .     S
N1335  C1337   1.327   .     S
N1335  N2331   1.357   .     S
N1336  C1338   1.335   .     S
N1336  Co1616  1.976   .     S
N1336  N20     1.349   1_655 S
C1337  C2446   1.379   .     S
C1338  C1153   1.374   1_655 S
C1339  C1156   1.372   1_655 S
C1339  C1340   1.372   .     S
C1340  C1155   1.375   1_655 S
Co1341 N1578   1.976   .     S
Co1341 N1120   1.976   1_655 S
Co1342 N2128   1.976   1_545 S
Co1343 N1602   1.976   .     S
Co1344 N1090   1.976   1_655 S
Co1344 N2152   1.976   1_545 S
C1345  C2142   1.374   1_545 S
C1345  C1348   1.490   .     S
C1346  C2111   1.379   1_545 S
C1346  C1347   1.481   .     S
C1347  C2144   1.375   1_545 S
C1348  C2143   1.372   1_545 S
C1349  C2118   1.374   1_545 S
C1349  C1352   1.490   .     S
C1350  C2135   1.379   1_545 S
C1350  C1351   1.481   .     S
C1351  C2120   1.375   1_545 S
C1352  C2119   1.372   1_545 S
C1353  C1356   1.490   .     S
C1354  C1355   1.481   .     S
C1357  C1360   1.490   .     S
C1358  C1359   1.481   .     S
N1361  Co1409  1.980   .     S
N1361  C1363   1.327   .     S
N1361  N1663   1.357   .     S
N1362  C1364   1.335   .     S
N1362  Co1616  1.976   1_455 S
C1363  C1686   1.379   .     S
C1364  C1413   1.374   .     S
C1365  C1416   1.372   .     S
C1365  C1366   1.372   .     S
C1366  C1415   1.375   .     S
N1367  Co1410  1.980   .     S
N1367  C1369   1.327   .     S
N1368  C1370   1.335   .     S
N1368  Co1479  1.976   .     S
N1368  N1658   1.349   .     S
C1369  C1418   1.379   .     S
C1370  C1689   1.374   .     S
C1371  C1692   1.372   .     S
C1371  C1372   1.372   .     S
C1372  C1691   1.375   .     S
N1373  Co1411  1.980   .     S
N1373  C1375   1.327   .     S
N1373  N1601   1.357   1_455 S
N1374  C1376   1.335   .     S
N1374  N1466   1.349   .     S
C1375  C1422   1.379   .     S
C1376  C1489   1.374   .     S
C1377  C1492   1.372   .     S
C1377  C1378   1.372   .     S
C1378  C1491   1.375   .     S
N1379  Co1412  1.980   .     S
N1379  C1381   1.327   .     S
N1380  C1382   1.335   .     S
N1380  Co1682  1.976   .     S
N1380  N2696   1.349   1_455 S
C1381  C1494   1.379   .     S
C1382  C2513   1.374   .     S
C1383  C2516   1.372   .     S
C1383  C1384   1.372   .     S
C1384  C2515   1.375   .     S
N1385  Co1411  1.980   .     S
N1385  C1387   1.327   .     S
N1385  N1639   1.357   .     S
N1386  C1388   1.335   .     S
N1386  Co1478  1.976   .     S
C1387  C1690   1.379   .     S
C1388  C1417   1.374   .     S
C1389  C1420   1.372   .     S
C1389  C1390   1.372   .     S
C1390  C1419   1.375   .     S
N1391  Co1412  1.980   .     S
N1391  C1393   1.327   .     S
N1392  C1394   1.335   .     S
N1392  Co1613  1.976   1_455 S
N1392  N1634   1.349   .     S
C1393  C1414   1.379   .     S
C1394  C1685   1.374   .     S
C1395  C1688   1.372   .     S
C1395  C1396   1.372   .     S
C1396  C1687   1.375   .     S
N1397  Co1409  1.980   .     S
N1397  C1399   1.327   .     S
N1397  N1441   1.357   .     S
N1398  C1400   1.335   .     S
N1398  N1578   1.349   1_455 S
C1399  C1490   1.379   .     S
C1400  C1421   1.374   .     S
C1401  C1424   1.372   .     S
C1401  C1402   1.372   .     S
C1402  C1423   1.375   .     S
N1403  Co1410  1.980   .     S
N1403  C1405   1.327   .     S
N1403  N2671   1.357   1_455 S
N1404  C1406   1.335   .     S
N1404  Co1684  1.976   .     S
C1405  C2514   1.379   .     S
C1406  C1493   1.374   .     S
C1407  C1496   1.372   .     S
C1407  C1408   1.372   .     S
C1408  C1495   1.375   .     S
Co1409 N1646   1.976   .     S
Co1409 N1460   1.976   .     S
Co1410 N1590   1.976   1_455 S
Co1411 N1572   1.976   1_455 S
Co1411 N1670   1.976   .     S
Co1412 N1430   1.976   .     S
C1413  C1416   1.490   .     S
C1414  C1415   1.481   .     S
C1417  C1420   1.490   .     S
C1418  C1419   1.481   .     S
C1421  C1580   1.374   1_455 S
C1421  C1424   1.490   .     S
C1422  C1603   1.379   1_455 S
C1422  C1423   1.481   .     S
C1423  C1582   1.375   1_455 S
C1424  C1581   1.372   1_455 S
C1425  C1610   1.374   1_455 S
C1425  C1428   1.490   .     S
C1426  C1585   1.379   1_455 S
C1426  C1427   1.481   .     S
C1427  C1612   1.375   1_455 S
C1428  C1611   1.372   1_455 S
N1429  Co1477  1.980   .     S
N1429  C1431   1.327   .     S
N1429  N1731   1.357   .     S
N1430  C1432   1.335   .     S
C1431  C1754   1.379   .     S
C1432  C1481   1.374   .     S
C1433  C1484   1.372   .     S
C1433  C1434   1.372   .     S
C1434  C1483   1.375   .     S
N1435  Co1478  1.980   .     S
N1435  C1437   1.327   .     S
N1436  C1438   1.335   .     S
N1436  Co1547  1.976   .     S
N1436  N1726   1.349   .     S
C1437  C1486   1.379   .     S
C1438  C1757   1.374   .     S
C1439  C1760   1.372   .     S
C1439  C1440   1.372   .     S
C1440  C1759   1.375   .     S
N1441  Co1479  1.980   .     S
N1441  C1443   1.327   .     S
N1442  C1444   1.335   .     S
N1442  N1534   1.349   .     S
C1443  C1490   1.379   .     S
C1444  C1557   1.374   .     S
C1445  C1560   1.372   .     S
C1445  C1446   1.372   .     S
C1446  C1559   1.375   .     S
N1447  Co1480  1.980   .     S
N1447  C1449   1.327   .     S
N1448  C1450   1.335   .     S
N1448  Co1750  1.976   .     S
N1448  N2492   1.349   .     S
C1449  C1562   1.379   .     S
C1450  C2581   1.374   .     S
C1451  C2584   1.372   .     S
C1451  C1452   1.372   .     S
C1452  C2583   1.375   .     S
N1453  Co1479  1.980   .     S
N1453  C1455   1.327   .     S
N1453  N1707   1.357   .     S
N1454  C1456   1.335   .     S
N1454  Co1546  1.976   .     S
C1455  C1758   1.379   .     S
C1456  C1485   1.374   .     S
C1457  C1488   1.372   .     S
C1457  C1458   1.372   .     S
C1458  C1487   1.375   .     S
N1459  Co1480  1.980   .     S
N1459  C1461   1.327   .     S
N1460  C1462   1.335   .     S
N1460  N1702   1.349   .     S
C1461  C1482   1.379   .     S
C1462  C1753   1.374   .     S
C1463  C1756   1.372   .     S
C1463  C1464   1.372   .     S
C1464  C1755   1.375   .     S
N1465  Co1477  1.980   .     S
N1465  C1467   1.327   .     S
N1465  N1509   1.357   .     S
N1466  C1468   1.335   .     S
C1467  C1558   1.379   .     S
C1468  C1489   1.374   .     S
C1469  C1492   1.372   .     S
C1469  C1470   1.372   .     S
C1470  C1491   1.375   .     S
N1471  Co1478  1.980   .     S
N1471  C1473   1.327   .     S
N1471  N2467   1.357   .     S
N1472  C1474   1.335   .     S
N1472  Co1752  1.976   .     S
C1473  C2582   1.379   .     S
C1474  C1561   1.374   .     S
C1475  C1564   1.372   .     S
C1475  C1476   1.372   .     S
C1476  C1563   1.375   .     S
Co1477 N1714   1.976   .     S
Co1477 N1528   1.976   .     S
Co1479 N1738   1.976   .     S
Co1480 N1498   1.976   .     S
C1481  C1484   1.490   .     S
C1482  C1483   1.481   .     S
C1485  C1488   1.490   .     S
C1486  C1487   1.481   .     S
C1489  C1492   1.490   .     S
C1490  C1491   1.481   .     S
C1493  C1496   1.490   .     S
C1494  C1495   1.481   .     S
N1497  Co1545  1.980   .     S
N1497  C1499   1.327   .     S
N1497  N1799   1.357   .     S
N1498  C1500   1.335   .     S
C1499  C1822   1.379   .     S
C1500  C1549   1.374   .     S
C1501  C1552   1.372   .     S
C1501  C1502   1.372   .     S
C1502  C1551   1.375   .     S
N1503  Co1546  1.980   .     S
N1503  C1505   1.327   .     S
N1504  C1506   1.335   .     S
N1504  Co1615  1.976   .     S
N1504  N1794   1.349   .     S
C1505  C1554   1.379   .     S
C1506  C1825   1.374   .     S
C1507  C1828   1.372   .     S
C1507  C1508   1.372   .     S
C1508  C1827   1.375   .     S
N1509  Co1547  1.980   .     S
N1509  C1511   1.327   .     S
N1510  C1512   1.335   .     S
N1510  N1602   1.349   .     S
C1511  C1558   1.379   .     S
C1512  C1625   1.374   .     S
C1513  C1628   1.372   .     S
C1513  C1514   1.372   .     S
C1514  C1627   1.375   .     S
N1515  Co1548  1.980   .     S
N1515  C1517   1.327   .     S
N1516  C1518   1.335   .     S
N1516  Co1818  1.976   .     S
N1516  N2560   1.349   .     S
C1517  C1630   1.379   .     S
C1518  C2649   1.374   .     S
C1519  C2652   1.372   .     S
C1519  C1520   1.372   .     S
C1520  C2651   1.375   .     S
N1521  Co1547  1.980   .     S
N1521  C1523   1.327   .     S
N1521  N1775   1.357   .     S
N1522  C1524   1.335   .     S
N1522  Co1614  1.976   .     S
C1523  C1826   1.379   .     S
C1524  C1553   1.374   .     S
C1525  C1556   1.372   .     S
C1525  C1526   1.372   .     S
C1526  C1555   1.375   .     S
N1527  Co1548  1.980   .     S
N1527  C1529   1.327   .     S
N1528  C1530   1.335   .     S
N1528  N1770   1.349   .     S
C1529  C1550   1.379   .     S
C1530  C1821   1.374   .     S
C1531  C1824   1.372   .     S
C1531  C1532   1.372   .     S
C1532  C1823   1.375   .     S
N1533  Co1545  1.980   .     S
N1533  C1535   1.327   .     S
N1533  N1577   1.357   .     S
N1534  C1536   1.335   .     S
C1535  C1626   1.379   .     S
C1536  C1557   1.374   .     S
C1537  C1560   1.372   .     S
C1537  C1538   1.372   .     S
C1538  C1559   1.375   .     S
N1539  Co1546  1.980   .     S
N1539  C1541   1.327   .     S
N1539  N2535   1.357   .     S
N1540  C1542   1.335   .     S
N1540  Co1820  1.976   .     S
C1541  C2650   1.379   .     S
C1542  C1629   1.374   .     S
C1543  C1632   1.372   .     S
C1543  C1544   1.372   .     S
C1544  C1631   1.375   .     S
Co1545 N1782   1.976   .     S
Co1545 N1596   1.976   .     S
Co1547 N1806   1.976   .     S
Co1548 N1566   1.976   .     S
C1549  C1552   1.490   .     S
C1550  C1551   1.481   .     S
C1553  C1556   1.490   .     S
C1554  C1555   1.481   .     S
C1557  C1560   1.490   .     S
C1558  C1559   1.481   .     S
C1561  C1564   1.490   .     S
C1562  C1563   1.481   .     S
N1565  Co1613  1.980   .     S
N1565  C1567   1.327   .     S
N1565  N1867   1.357   .     S
N1566  C1568   1.335   .     S
C1567  C1890   1.379   .     S
C1568  C1617   1.374   .     S
C1569  C1620   1.372   .     S
C1569  C1570   1.372   .     S
C1570  C1619   1.375   .     S
N1571  Co1614  1.980   .     S
N1571  C1573   1.327   .     S
N1572  C1574   1.335   .     S
N1572  Co1411  1.976   1_655 S
N1572  N1862   1.349   .     S
C1573  C1622   1.379   .     S
C1574  C1893   1.374   .     S
C1575  C1896   1.372   .     S
C1575  C1576   1.372   .     S
C1576  C1895   1.375   .     S
N1577  Co1615  1.980   .     S
N1577  C1579   1.327   .     S
N1578  C1580   1.335   .     S
N1578  N1398   1.349   1_655 S
C1579  C1626   1.379   .     S
C1580  C1421   1.374   1_655 S
C1581  C1424   1.372   1_655 S
C1581  C1582   1.372   .     S
C1582  C1423   1.375   1_655 S
N1583  Co1616  1.980   .     S
N1583  C1585   1.327   .     S
N1583  N315    1.357   1_655 S
N1584  C1586   1.335   .     S
N1584  Co1886  1.976   .     S
N1584  N2628   1.349   .     S
C1585  C1426   1.379   1_655 S
C1586  C2717   1.374   .     S
C1587  C2720   1.372   .     S
C1587  C1588   1.372   .     S
C1588  C2719   1.375   .     S
N1589  Co1615  1.980   .     S
N1589  C1591   1.327   .     S
N1589  N1843   1.357   .     S
N1590  C1592   1.335   .     S
N1590  Co1410  1.976   1_655 S
C1591  C1894   1.379   .     S
C1592  C1621   1.374   .     S
C1593  C1624   1.372   .     S
C1593  C1594   1.372   .     S
C1594  C1623   1.375   .     S
N1595  Co1616  1.980   .     S
N1595  C1597   1.327   .     S
N1596  C1598   1.335   .     S
N1596  N1838   1.349   .     S
C1597  C1618   1.379   .     S
C1598  C1889   1.374   .     S
C1599  C1892   1.372   .     S
C1599  C1600   1.372   .     S
C1600  C1891   1.375   .     S
N1601  Co1613  1.980   .     S
N1601  C1603   1.327   .     S
N1601  N1373   1.357   1_655 S
N1602  C1604   1.335   .     S
C1603  C1422   1.379   1_655 S
C1604  C1625   1.374   .     S
C1605  C1628   1.372   .     S
C1605  C1606   1.372   .     S
C1606  C1627   1.375   .     S
N1607  Co1614  1.980   .     S
N1607  C1609   1.327   .     S
N1607  N2603   1.357   .     S
N1608  C1610   1.335   .     S
N1608  Co1888  1.976   .     S
N1608  N292    1.349   1_655 S
C1609  C2718   1.379   .     S
C1610  C1425   1.374   1_655 S
C1611  C1428   1.372   1_655 S
C1611  C1612   1.372   .     S
C1612  C1427   1.375   1_655 S
Co1613 N1850   1.976   .     S
Co1613 N1392   1.976   1_655 S
Co1615 N1874   1.976   .     S
Co1616 N1362   1.976   1_655 S
C1617  C1620   1.490   .     S
C1618  C1619   1.481   .     S
C1621  C1624   1.490   .     S
C1622  C1623   1.481   .     S
C1625  C1628   1.490   .     S
C1626  C1627   1.481   .     S
C1629  C1632   1.490   .     S
C1630  C1631   1.481   .     S
N1633  Co1681  1.980   .     S
N1633  C1635   1.327   .     S
N1633  N1935   1.357   .     S
N1634  C1636   1.335   .     S
N1634  Co1888  1.976   1_455 S
C1635  C1958   1.379   .     S
C1636  C1685   1.374   .     S
C1637  C1688   1.372   .     S
C1637  C1638   1.372   .     S
C1638  C1687   1.375   .     S
N1639  Co1682  1.980   .     S
N1639  C1641   1.327   .     S
N1640  C1642   1.335   .     S
N1640  Co1751  1.976   .     S
N1640  N1930   1.349   .     S
C1641  C1690   1.379   .     S
C1642  C1961   1.374   .     S
C1643  C1964   1.372   .     S
C1643  C1644   1.372   .     S
C1644  C1963   1.375   .     S
N1645  Co1683  1.980   .     S
N1645  C1647   1.327   .     S
N1645  N1873   1.357   1_455 S
N1646  C1648   1.335   .     S
N1646  N1738   1.349   .     S
C1647  C1694   1.379   .     S
C1648  C1761   1.374   .     S
C1649  C1764   1.372   .     S
C1649  C1650   1.372   .     S
C1650  C1763   1.375   .     S
N1651  Co1684  1.980   .     S
N1651  C1653   1.327   .     S
N1652  C1654   1.335   .     S
N1652  Co1954  1.976   .     S
N1652  N2968   1.349   1_455 S
C1653  C1766   1.379   .     S
C1654  C2785   1.374   .     S
C1655  C2788   1.372   .     S
C1655  C1656   1.372   .     S
C1656  C2787   1.375   .     S
N1657  Co1683  1.980   .     S
N1657  C1659   1.327   .     S
N1657  N1911   1.357   .     S
N1658  C1660   1.335   .     S
N1658  Co1750  1.976   .     S
C1659  C1962   1.379   .     S
C1660  C1689   1.374   .     S
C1661  C1692   1.372   .     S
C1661  C1662   1.372   .     S
C1662  C1691   1.375   .     S
N1663  Co1684  1.980   .     S
N1663  C1665   1.327   .     S
N1664  C1666   1.335   .     S
N1664  Co1885  1.976   1_455 S
N1664  N1906   1.349   .     S
C1665  C1686   1.379   .     S
C1666  C1957   1.374   .     S
C1667  C1960   1.372   .     S
C1667  C1668   1.372   .     S
C1668  C1959   1.375   .     S
N1669  Co1681  1.980   .     S
N1669  C1671   1.327   .     S
N1669  N1713   1.357   .     S
N1670  C1672   1.335   .     S
N1670  N1850   1.349   1_455 S
C1671  C1762   1.379   .     S
C1672  C1693   1.374   .     S
C1673  C1696   1.372   .     S
C1673  C1674   1.372   .     S
C1674  C1695   1.375   .     S
N1675  Co1682  1.980   .     S
N1675  C1677   1.327   .     S
N1675  N2943   1.357   1_455 S
N1676  C1678   1.335   .     S
N1676  Co1956  1.976   .     S
C1677  C2786   1.379   .     S
C1678  C1765   1.374   .     S
C1679  C1768   1.372   .     S
C1679  C1680   1.372   .     S
C1680  C1767   1.375   .     S
Co1681 N1918   1.976   .     S
Co1681 N1732   1.976   .     S
Co1682 N1862   1.976   1_455 S
Co1683 N1844   1.976   1_455 S
Co1683 N1942   1.976   .     S
Co1684 N1702   1.976   .     S
C1685  C1688   1.490   .     S
C1686  C1687   1.481   .     S
C1689  C1692   1.490   .     S
C1690  C1691   1.481   .     S
C1693  C1852   1.374   1_455 S
C1693  C1696   1.490   .     S
C1694  C1875   1.379   1_455 S
C1694  C1695   1.481   .     S
C1695  C1854   1.375   1_455 S
C1696  C1853   1.372   1_455 S
C1697  C1882   1.374   1_455 S
C1697  C1700   1.490   .     S
C1698  C1857   1.379   1_455 S
C1698  C1699   1.481   .     S
C1699  C1884   1.375   1_455 S
C1700  C1883   1.372   1_455 S
N1701  Co1749  1.980   .     S
N1701  C1703   1.327   .     S
N1701  N2003   1.357   .     S
N1702  C1704   1.335   .     S
C1703  C2026   1.379   .     S
C1704  C1753   1.374   .     S
C1705  C1756   1.372   .     S
C1705  C1706   1.372   .     S
C1706  C1755   1.375   .     S
N1707  Co1750  1.980   .     S
N1707  C1709   1.327   .     S
N1708  C1710   1.335   .     S
N1708  Co1819  1.976   .     S
N1708  N1998   1.349   .     S
C1709  C1758   1.379   .     S
C1710  C2029   1.374   .     S
C1711  C2032   1.372   .     S
C1711  C1712   1.372   .     S
C1712  C2031   1.375   .     S
N1713  Co1751  1.980   .     S
N1713  C1715   1.327   .     S
N1714  C1716   1.335   .     S
N1714  N1806   1.349   .     S
C1715  C1762   1.379   .     S
C1716  C1829   1.374   .     S
C1717  C1832   1.372   .     S
C1717  C1718   1.372   .     S
C1718  C1831   1.375   .     S
N1719  Co1752  1.980   .     S
N1719  C1721   1.327   .     S
N1720  C1722   1.335   .     S
N1720  Co2022  1.976   .     S
N1720  N2764   1.349   .     S
C1721  C1834   1.379   .     S
C1722  C2853   1.374   .     S
C1723  C2856   1.372   .     S
C1723  C1724   1.372   .     S
C1724  C2855   1.375   .     S
N1725  Co1751  1.980   .     S
N1725  C1727   1.327   .     S
N1725  N1979   1.357   .     S
N1726  C1728   1.335   .     S
N1726  Co1818  1.976   .     S
C1727  C2030   1.379   .     S
C1728  C1757   1.374   .     S
C1729  C1760   1.372   .     S
C1729  C1730   1.372   .     S
C1730  C1759   1.375   .     S
N1731  Co1752  1.980   .     S
N1731  C1733   1.327   .     S
N1732  C1734   1.335   .     S
N1732  N1974   1.349   .     S
C1733  C1754   1.379   .     S
C1734  C2025   1.374   .     S
C1735  C2028   1.372   .     S
C1735  C1736   1.372   .     S
C1736  C2027   1.375   .     S
N1737  Co1749  1.980   .     S
N1737  C1739   1.327   .     S
N1737  N1781   1.357   .     S
N1738  C1740   1.335   .     S
C1739  C1830   1.379   .     S
C1740  C1761   1.374   .     S
C1741  C1764   1.372   .     S
C1741  C1742   1.372   .     S
C1742  C1763   1.375   .     S
N1743  Co1750  1.980   .     S
N1743  C1745   1.327   .     S
N1743  N2739   1.357   .     S
N1744  C1746   1.335   .     S
N1744  Co2024  1.976   .     S
C1745  C2854   1.379   .     S
C1746  C1833   1.374   .     S
C1747  C1836   1.372   .     S
C1747  C1748   1.372   .     S
C1748  C1835   1.375   .     S
Co1749 N1986   1.976   .     S
Co1749 N1800   1.976   .     S
Co1751 N2010   1.976   .     S
Co1752 N1770   1.976   .     S
C1753  C1756   1.490   .     S
C1754  C1755   1.481   .     S
C1757  C1760   1.490   .     S
C1758  C1759   1.481   .     S
C1761  C1764   1.490   .     S
C1762  C1763   1.481   .     S
C1765  C1768   1.490   .     S
C1766  C1767   1.481   .     S
N1769  Co1817  1.980   .     S
N1769  C1771   1.327   .     S
N1769  N2071   1.357   .     S
N1770  C1772   1.335   .     S
C1771  C2094   1.379   .     S
C1772  C1821   1.374   .     S
C1773  C1824   1.372   .     S
C1773  C1774   1.372   .     S
C1774  C1823   1.375   .     S
N1775  Co1818  1.980   .     S
N1775  C1777   1.327   .     S
N1776  C1778   1.335   .     S
N1776  Co1887  1.976   .     S
N1776  N2066   1.349   .     S
C1777  C1826   1.379   .     S
C1778  C2097   1.374   .     S
C1779  C2100   1.372   .     S
C1779  C1780   1.372   .     S
C1780  C2099   1.375   .     S
N1781  Co1819  1.980   .     S
N1781  C1783   1.327   .     S
N1782  C1784   1.335   .     S
N1782  N1874   1.349   .     S
C1783  C1830   1.379   .     S
C1784  C1897   1.374   .     S
C1785  C1900   1.372   .     S
C1785  C1786   1.372   .     S
C1786  C1899   1.375   .     S
N1787  Co1820  1.980   .     S
N1787  C1789   1.327   .     S
N1788  C1790   1.335   .     S
N1788  Co2090  1.976   .     S
N1788  N2832   1.349   .     S
C1789  C1902   1.379   .     S
C1790  C2921   1.374   .     S
C1791  C2924   1.372   .     S
C1791  C1792   1.372   .     S
C1792  C2923   1.375   .     S
N1793  Co1819  1.980   .     S
N1793  C1795   1.327   .     S
N1793  N2047   1.357   .     S
N1794  C1796   1.335   .     S
N1794  Co1886  1.976   .     S
C1795  C2098   1.379   .     S
C1796  C1825   1.374   .     S
C1797  C1828   1.372   .     S
C1797  C1798   1.372   .     S
C1798  C1827   1.375   .     S
N1799  Co1820  1.980   .     S
N1799  C1801   1.327   .     S
N1800  C1802   1.335   .     S
N1800  N2042   1.349   .     S
C1801  C1822   1.379   .     S
C1802  C2093   1.374   .     S
C1803  C2096   1.372   .     S
C1803  C1804   1.372   .     S
C1804  C2095   1.375   .     S
N1805  Co1817  1.980   .     S
N1805  C1807   1.327   .     S
N1805  N1849   1.357   .     S
N1806  C1808   1.335   .     S
C1807  C1898   1.379   .     S
C1808  C1829   1.374   .     S
C1809  C1832   1.372   .     S
C1809  C1810   1.372   .     S
C1810  C1831   1.375   .     S
N1811  Co1818  1.980   .     S
N1811  C1813   1.327   .     S
N1811  N2807   1.357   .     S
N1812  C1814   1.335   .     S
N1812  Co2092  1.976   .     S
C1813  C2922   1.379   .     S
C1814  C1901   1.374   .     S
C1815  C1904   1.372   .     S
C1815  C1816   1.372   .     S
C1816  C1903   1.375   .     S
Co1817 N2054   1.976   .     S
Co1817 N1868   1.976   .     S
Co1819 N2078   1.976   .     S
Co1820 N1838   1.976   .     S
C1821  C1824   1.490   .     S
C1822  C1823   1.481   .     S
C1825  C1828   1.490   .     S
C1826  C1827   1.481   .     S
C1829  C1832   1.490   .     S
C1830  C1831   1.481   .     S
C1833  C1836   1.490   .     S
C1834  C1835   1.481   .     S
N1837  Co1885  1.980   .     S
N1837  C1839   1.327   .     S
N1837  N2139   1.357   .     S
N1838  C1840   1.335   .     S
C1839  C2162   1.379   .     S
C1840  C1889   1.374   .     S
C1841  C1892   1.372   .     S
C1841  C1842   1.372   .     S
C1842  C1891   1.375   .     S
N1843  Co1886  1.980   .     S
N1843  C1845   1.327   .     S
N1844  C1846   1.335   .     S
N1844  Co1683  1.976   1_655 S
N1844  N2134   1.349   .     S
C1845  C1894   1.379   .     S
C1846  C2165   1.374   .     S
C1847  C2168   1.372   .     S
C1847  C1848   1.372   .     S
C1848  C2167   1.375   .     S
N1849  Co1887  1.980   .     S
N1849  C1851   1.327   .     S
N1850  C1852   1.335   .     S
N1850  N1670   1.349   1_655 S
C1851  C1898   1.379   .     S
C1852  C1693   1.374   1_655 S
C1853  C1696   1.372   1_655 S
C1853  C1854   1.372   .     S
C1854  C1695   1.375   1_655 S
N1855  Co1888  1.980   .     S
N1855  C1857   1.327   .     S
N1855  N587    1.357   1_655 S
N1856  C1858   1.335   .     S
N1856  Co2158  1.976   .     S
N1856  N2900   1.349   .     S
C1857  C1698   1.379   1_655 S
C1858  C2989   1.374   .     S
C1859  C2992   1.372   .     S
C1859  C1860   1.372   .     S
C1860  C2991   1.375   .     S
N1861  Co1887  1.980   .     S
N1861  C1863   1.327   .     S
N1861  N2115   1.357   .     S
N1862  C1864   1.335   .     S
N1862  Co1682  1.976   1_655 S
C1863  C2166   1.379   .     S
C1864  C1893   1.374   .     S
C1865  C1896   1.372   .     S
C1865  C1866   1.372   .     S
C1866  C1895   1.375   .     S
N1867  Co1888  1.980   .     S
N1867  C1869   1.327   .     S
N1868  C1870   1.335   .     S
N1868  N2110   1.349   .     S
C1869  C1890   1.379   .     S
C1870  C2161   1.374   .     S
C1871  C2164   1.372   .     S
C1871  C1872   1.372   .     S
C1872  C2163   1.375   .     S
N1873  Co1885  1.980   .     S
N1873  C1875   1.327   .     S
N1873  N1645   1.357   1_655 S
N1874  C1876   1.335   .     S
C1875  C1694   1.379   1_655 S
C1876  C1897   1.374   .     S
C1877  C1900   1.372   .     S
C1877  C1878   1.372   .     S
C1878  C1899   1.375   .     S
N1879  Co1886  1.980   .     S
N1879  C1881   1.327   .     S
N1879  N2875   1.357   .     S
N1880  C1882   1.335   .     S
N1880  Co2160  1.976   .     S
N1880  N564    1.349   1_655 S
C1881  C2990   1.379   .     S
C1882  C1697   1.374   1_655 S
C1883  C1700   1.372   1_655 S
C1883  C1884   1.372   .     S
C1884  C1699   1.375   1_655 S
Co1885 N2122   1.976   .     S
Co1885 N1664   1.976   1_655 S
Co1887 N2146   1.976   .     S
Co1888 N1634   1.976   1_655 S
C1889  C1892   1.490   .     S
C1890  C1891   1.481   .     S
C1893  C1896   1.490   .     S
C1894  C1895   1.481   .     S
C1897  C1900   1.490   .     S
C1898  C1899   1.481   .     S
C1901  C1904   1.490   .     S
C1902  C1903   1.481   .     S
N1905  Co1953  1.980   .     S
N1905  C1907   1.327   .     S
N1905  N1119   1.357   1_565 S
N1906  C1908   1.335   .     S
N1906  Co2160  1.976   1_455 S
C1907  C1142   1.379   1_565 S
C1908  C1957   1.374   .     S
C1909  C1960   1.372   .     S
C1909  C1910   1.372   .     S
C1910  C1959   1.375   .     S
N1911  Co1954  1.980   .     S
N1911  C1913   1.327   .     S
N1912  C1914   1.335   .     S
N1912  Co2023  1.976   .     S
N1912  N1114   1.349   1_565 S
C1913  C1962   1.379   .     S
C1914  C1145   1.374   1_565 S
C1915  C1148   1.372   1_565 S
C1915  C1916   1.372   .     S
C1916  C1147   1.375   1_565 S
N1917  Co1955  1.980   .     S
N1917  C1919   1.327   .     S
N1917  N2145   1.357   1_455 S
N1918  C1920   1.335   .     S
N1918  N2010   1.349   .     S
C1919  C1966   1.379   .     S
C1920  C2033   1.374   .     S
C1921  C2036   1.372   .     S
C1921  C1922   1.372   .     S
C1922  C2035   1.375   .     S
N1923  Co1956  1.980   .     S
N1923  C1925   1.327   .     S
N1924  C1926   1.335   .     S
N1924  Co1138  1.976   1_565 S
N1924  N3240   1.349   1_455 S
C1925  C2038   1.379   .     S
C1926  C3057   1.374   .     S
C1927  C3060   1.372   .     S
C1927  C1928   1.372   .     S
C1928  C3059   1.375   .     S
N1929  Co1955  1.980   .     S
N1929  C1931   1.327   .     S
N1929  N1095   1.357   1_565 S
N1930  C1932   1.335   .     S
N1930  Co2022  1.976   .     S
C1931  C1146   1.379   1_565 S
C1932  C1961   1.374   .     S
C1933  C1964   1.372   .     S
C1933  C1934   1.372   .     S
C1934  C1963   1.375   .     S
N1935  Co1956  1.980   .     S
N1935  C1937   1.327   .     S
N1936  C1938   1.335   .     S
N1936  Co2157  1.976   1_455 S
N1936  N1090   1.349   1_565 S
C1937  C1958   1.379   .     S
C1938  C1141   1.374   1_565 S
C1939  C1144   1.372   1_565 S
C1939  C1940   1.372   .     S
C1940  C1143   1.375   1_565 S
N1941  Co1953  1.980   .     S
N1941  C1943   1.327   .     S
N1941  N1985   1.357   .     S
N1942  C1944   1.335   .     S
N1942  N2122   1.349   1_455 S
C1943  C2034   1.379   .     S
C1944  C1965   1.374   .     S
C1945  C1968   1.372   .     S
C1945  C1946   1.372   .     S
C1946  C1967   1.375   .     S
N1947  Co1954  1.980   .     S
N1947  C1949   1.327   .     S
N1947  N3215   1.357   1_455 S
N1948  C1950   1.335   .     S
N1948  Co1140  1.976   1_565 S
C1949  C3058   1.379   .     S
C1950  C2037   1.374   .     S
C1951  C2040   1.372   .     S
C1951  C1952   1.372   .     S
C1952  C2039   1.375   .     S
Co1953 N1102   1.976   1_565 S
Co1953 N2004   1.976   .     S
Co1954 N2134   1.976   1_455 S
Co1955 N2116   1.976   1_455 S
Co1955 N1126   1.976   1_565 S
Co1956 N1974   1.976   .     S
C1957  C1960   1.490   .     S
C1958  C1959   1.481   .     S
C1961  C1964   1.490   .     S
C1962  C1963   1.481   .     S
C1965  C2124   1.374   1_455 S
C1965  C1968   1.490   .     S
C1966  C2147   1.379   1_455 S
C1966  C1967   1.481   .     S
C1967  C2126   1.375   1_455 S
C1968  C2125   1.372   1_455 S
C1969  C2154   1.374   1_455 S
C1969  C1972   1.490   .     S
C1970  C2129   1.379   1_455 S
C1970  C1971   1.481   .     S
C1971  C2156   1.375   1_455 S
C1972  C2155   1.372   1_455 S
N1973  Co2021  1.980   .     S
N1973  C1975   1.327   .     S
N1973  N1187   1.357   1_565 S
N1974  C1976   1.335   .     S
C1975  C1210   1.379   1_565 S
C1976  C2025   1.374   .     S
C1977  C2028   1.372   .     S
C1977  C1978   1.372   .     S
C1978  C2027   1.375   .     S
N1979  Co2022  1.980   .     S
N1979  C1981   1.327   .     S
N1980  C1982   1.335   .     S
N1980  Co2091  1.976   .     S
N1980  N1182   1.349   1_565 S
C1981  C2030   1.379   .     S
C1982  C1213   1.374   1_565 S
C1983  C1216   1.372   1_565 S
C1983  C1984   1.372   .     S
C1984  C1215   1.375   1_565 S
N1985  Co2023  1.980   .     S
N1985  C1987   1.327   .     S
N1986  C1988   1.335   .     S
N1986  N2078   1.349   .     S
C1987  C2034   1.379   .     S
C1988  C2101   1.374   .     S
C1989  C2104   1.372   .     S
C1989  C1990   1.372   .     S
C1990  C2103   1.375   .     S
N1991  Co2024  1.980   .     S
N1991  C1993   1.327   .     S
N1992  C1994   1.335   .     S
N1992  Co1206  1.976   1_565 S
N1992  N3036   1.349   .     S
C1993  C2106   1.379   .     S
C1994  C3125   1.374   .     S
C1995  C3128   1.372   .     S
C1995  C1996   1.372   .     S
C1996  C3127   1.375   .     S
N1997  Co2023  1.980   .     S
N1997  C1999   1.327   .     S
N1997  N1163   1.357   1_565 S
N1998  C2000   1.335   .     S
N1998  Co2090  1.976   .     S
C1999  C1214   1.379   1_565 S
C2000  C2029   1.374   .     S
C2001  C2032   1.372   .     S
C2001  C2002   1.372   .     S
C2002  C2031   1.375   .     S
N2003  Co2024  1.980   .     S
N2003  C2005   1.327   .     S
N2004  C2006   1.335   .     S
N2004  N1158   1.349   1_565 S
C2005  C2026   1.379   .     S
C2006  C1209   1.374   1_565 S
C2007  C1212   1.372   1_565 S
C2007  C2008   1.372   .     S
C2008  C1211   1.375   1_565 S
N2009  Co2021  1.980   .     S
N2009  C2011   1.327   .     S
N2009  N2053   1.357   .     S
N2010  C2012   1.335   .     S
C2011  C2102   1.379   .     S
C2012  C2033   1.374   .     S
C2013  C2036   1.372   .     S
C2013  C2014   1.372   .     S
C2014  C2035   1.375   .     S
N2015  Co2022  1.980   .     S
N2015  C2017   1.327   .     S
N2015  N3011   1.357   .     S
N2016  C2018   1.335   .     S
N2016  Co1208  1.976   1_565 S
C2017  C3126   1.379   .     S
C2018  C2105   1.374   .     S
C2019  C2108   1.372   .     S
C2019  C2020   1.372   .     S
C2020  C2107   1.375   .     S
Co2021 N1170   1.976   1_565 S
Co2021 N2072   1.976   .     S
Co2023 N1194   1.976   1_565 S
Co2024 N2042   1.976   .     S
C2025  C2028   1.490   .     S
C2026  C2027   1.481   .     S
C2029  C2032   1.490   .     S
C2030  C2031   1.481   .     S
C2033  C2036   1.490   .     S
C2034  C2035   1.481   .     S
C2037  C2040   1.490   .     S
C2038  C2039   1.481   .     S
N2041  Co2089  1.980   .     S
N2041  C2043   1.327   .     S
N2041  N1255   1.357   1_565 S
N2042  C2044   1.335   .     S
C2043  C1278   1.379   1_565 S
C2044  C2093   1.374   .     S
C2045  C2096   1.372   .     S
C2045  C2046   1.372   .     S
C2046  C2095   1.375   .     S
N2047  Co2090  1.980   .     S
N2047  C2049   1.327   .     S
N2048  C2050   1.335   .     S
N2048  Co2159  1.976   .     S
N2048  N1250   1.349   1_565 S
C2049  C2098   1.379   .     S
C2050  C1281   1.374   1_565 S
C2051  C1284   1.372   1_565 S
C2051  C2052   1.372   .     S
C2052  C1283   1.375   1_565 S
N2053  Co2091  1.980   .     S
N2053  C2055   1.327   .     S
N2054  C2056   1.335   .     S
N2054  N2146   1.349   .     S
C2055  C2102   1.379   .     S
C2056  C2169   1.374   .     S
C2057  C2172   1.372   .     S
C2057  C2058   1.372   .     S
C2058  C2171   1.375   .     S
N2059  Co2092  1.980   .     S
N2059  C2061   1.327   .     S
N2060  C2062   1.335   .     S
N2060  Co1274  1.976   1_565 S
N2060  N3104   1.349   .     S
C2061  C2174   1.379   .     S
C2062  C3193   1.374   .     S
C2063  C3196   1.372   .     S
C2063  C2064   1.372   .     S
C2064  C3195   1.375   .     S
N2065  Co2091  1.980   .     S
N2065  C2067   1.327   .     S
N2065  N1231   1.357   1_565 S
N2066  C2068   1.335   .     S
N2066  Co2158  1.976   .     S
C2067  C1282   1.379   1_565 S
C2068  C2097   1.374   .     S
C2069  C2100   1.372   .     S
C2069  C2070   1.372   .     S
C2070  C2099   1.375   .     S
N2071  Co2092  1.980   .     S
N2071  C2073   1.327   .     S
N2072  C2074   1.335   .     S
N2072  N1226   1.349   1_565 S
C2073  C2094   1.379   .     S
C2074  C1277   1.374   1_565 S
C2075  C1280   1.372   1_565 S
C2075  C2076   1.372   .     S
C2076  C1279   1.375   1_565 S
N2077  Co2089  1.980   .     S
N2077  C2079   1.327   .     S
N2077  N2121   1.357   .     S
N2078  C2080   1.335   .     S
C2079  C2170   1.379   .     S
C2080  C2101   1.374   .     S
C2081  C2104   1.372   .     S
C2081  C2082   1.372   .     S
C2082  C2103   1.375   .     S
N2083  Co2090  1.980   .     S
N2083  C2085   1.327   .     S
N2083  N3079   1.357   .     S
N2084  C2086   1.335   .     S
N2084  Co1276  1.976   1_565 S
C2085  C3194   1.379   .     S
C2086  C2173   1.374   .     S
C2087  C2176   1.372   .     S
C2087  C2088   1.372   .     S
C2088  C2175   1.375   .     S
Co2089 N1238   1.976   1_565 S
Co2089 N2140   1.976   .     S
Co2091 N1262   1.976   1_565 S
Co2092 N2110   1.976   .     S
C2093  C2096   1.490   .     S
C2094  C2095   1.481   .     S
C2097  C2100   1.490   .     S
C2098  C2099   1.481   .     S
C2101  C2104   1.490   .     S
C2102  C2103   1.481   .     S
C2105  C2108   1.490   .     S
C2106  C2107   1.481   .     S
N2109  Co2157  1.980   .     S
N2109  C2111   1.327   .     S
N2109  N1323   1.357   1_565 S
N2110  C2112   1.335   .     S
C2111  C1346   1.379   1_565 S
C2112  C2161   1.374   .     S
C2113  C2164   1.372   .     S
C2113  C2114   1.372   .     S
C2114  C2163   1.375   .     S
N2115  Co2158  1.980   .     S
N2115  C2117   1.327   .     S
N2116  C2118   1.335   .     S
N2116  Co1955  1.976   1_655 S
N2116  N1318   1.349   1_565 S
C2117  C2166   1.379   .     S
C2118  C1349   1.374   1_565 S
C2119  C1352   1.372   1_565 S
C2119  C2120   1.372   .     S
C2120  C1351   1.375   1_565 S
N2121  Co2159  1.980   .     S
N2121  C2123   1.327   .     S
N2122  C2124   1.335   .     S
N2122  N1942   1.349   1_655 S
C2123  C2170   1.379   .     S
C2124  C1965   1.374   1_655 S
C2125  C1968   1.372   1_655 S
C2125  C2126   1.372   .     S
C2126  C1967   1.375   1_655 S
N2127  Co2160  1.980   .     S
N2127  C2129   1.327   .     S
N2127  N859    1.357   1_655 S
N2128  C2130   1.335   .     S
N2128  Co1342  1.976   1_565 S
N2128  N3172   1.349   .     S
C2129  C1970   1.379   1_655 S
C2130  C3261   1.374   .     S
C2131  C3264   1.372   .     S
C2131  C2132   1.372   .     S
C2132  C3263   1.375   .     S
N2133  Co2159  1.980   .     S
N2133  C2135   1.327   .     S
N2133  N1299   1.357   1_565 S
N2134  C2136   1.335   .     S
N2134  Co1954  1.976   1_655 S
C2135  C1350   1.379   1_565 S
C2136  C2165   1.374   .     S
C2137  C2168   1.372   .     S
C2137  C2138   1.372   .     S
C2138  C2167   1.375   .     S
N2139  Co2160  1.980   .     S
N2139  C2141   1.327   .     S
N2140  C2142   1.335   .     S
N2140  N1294   1.349   1_565 S
C2141  C2162   1.379   .     S
C2142  C1345   1.374   1_565 S
C2143  C1348   1.372   1_565 S
C2143  C2144   1.372   .     S
C2144  C1347   1.375   1_565 S
N2145  Co2157  1.980   .     S
N2145  C2147   1.327   .     S
N2145  N1917   1.357   1_655 S
N2146  C2148   1.335   .     S
C2147  C1966   1.379   1_655 S
C2148  C2169   1.374   .     S
C2149  C2172   1.372   .     S
C2149  C2150   1.372   .     S
C2150  C2171   1.375   .     S
N2151  Co2158  1.980   .     S
N2151  C2153   1.327   .     S
N2151  N3147   1.357   .     S
N2152  C2154   1.335   .     S
N2152  Co1344  1.976   1_565 S
N2152  N836    1.349   1_655 S
C2153  C3262   1.379   .     S
C2154  C1969   1.374   1_655 S
C2155  C1972   1.372   1_655 S
C2155  C2156   1.372   .     S
C2156  C1971   1.375   1_655 S
Co2157 N1306   1.976   1_565 S
Co2157 N1936   1.976   1_655 S
Co2159 N1330   1.976   1_565 S
Co2160 N1906   1.976   1_655 S
C2161  C2164   1.490   .     S
C2162  C2163   1.481   .     S
C2165  C2168   1.490   .     S
C2166  C2167   1.481   .     S
C2169  C2172   1.490   .     S
C2170  C2171   1.481   .     S
C2173  C2176   1.490   .     S
C2174  C2175   1.481   .     S
N2177  Co2225  1.980   .     S
N2177  C2179   1.327   .     S
N2177  N2479   1.357   .     S
N2178  C2180   1.335   .     S
N2178  Co2432  1.976   1_455 S
N2178  N3024   1.349   1_545 S
C2179  C2502   1.379   .     S
C2180  C2229   1.374   .     S
C2181  C2232   1.372   .     S
C2181  C2182   1.372   .     S
C2182  C2231   1.375   .     S
N2183  Co2226  1.980   .     S
N2183  C2185   1.327   .     S
N2183  N3017   1.357   1_545 S
N2184  C2186   1.335   .     S
N2184  Co2295  1.976   .     S
N2184  N2474   1.349   .     S
C2185  C2234   1.379   .     S
C2186  C2505   1.374   .     S
C2187  C2508   1.372   .     S
C2187  C2188   1.372   .     S
C2188  C2507   1.375   .     S
N2189  Co2227  1.980   .     S
N2189  C2191   1.327   .     S
N2189  N2417   1.357   1_455 S
N2190  C2192   1.335   .     S
N2190  Co3041  1.976   1_545 S
N2190  N2282   1.349   .     S
C2191  C2238   1.379   .     S
C2192  C2305   1.374   .     S
C2193  C2308   1.372   .     S
C2193  C2194   1.372   .     S
C2194  C2307   1.375   .     S
N2195  Co2228  1.980   .     S
N2195  C2197   1.327   .     S
N2196  C2198   1.335   .     S
N2196  Co2498  1.976   .     S
N2196  N3512   1.349   1_455 S
C2197  C2310   1.379   .     S
C2198  C3329   1.374   .     S
C2199  C3332   1.372   .     S
C2199  C2200   1.372   .     S
C2200  C3331   1.375   .     S
N2201  Co2227  1.980   .     S
N2201  C2203   1.327   .     S
N2201  N2455   1.357   .     S
N2202  C2204   1.335   .     S
N2202  Co2294  1.976   .     S
N2202  N3000   1.349   1_545 S
C2203  C2506   1.379   .     S
C2204  C2233   1.374   .     S
C2205  C2236   1.372   .     S
C2205  C2206   1.372   .     S
C2206  C2235   1.375   .     S
N2207  Co2228  1.980   .     S
N2207  C2209   1.327   .     S
N2207  N2993   1.357   1_545 S
N2208  C2210   1.335   .     S
N2208  Co2429  1.976   1_455 S
N2208  N2450   1.349   .     S
C2209  C2230   1.379   .     S
C2210  C2501   1.374   .     S
C2211  C2504   1.372   .     S
C2211  C2212   1.372   .     S
C2212  C2503   1.375   .     S
N2213  Co2225  1.980   .     S
N2213  C2215   1.327   .     S
N2213  N2257   1.357   .     S
N2214  C2216   1.335   .     S
N2214  Co3043  1.976   1_545 S
N2214  N2394   1.349   1_455 S
C2215  C2306   1.379   .     S
C2216  C2237   1.374   .     S
C2217  C2240   1.372   .     S
C2217  C2218   1.372   .     S
C2218  C2239   1.375   .     S
N2219  Co2226  1.980   .     S
N2219  C2221   1.327   .     S
N2219  N3487   1.357   1_455 S
N2220  C2222   1.335   .     S
N2220  Co2500  1.976   .     S
C2221  C3330   1.379   .     S
C2222  C2309   1.374   .     S
C2223  C2312   1.372   .     S
C2223  C2224   1.372   .     S
C2224  C2311   1.375   .     S
Co2225 N2462   1.976   .     S
Co2225 N2276   1.976   .     S
Co2226 N3012   1.976   1_545 S
Co2226 N2406   1.976   1_455 S
Co2227 N2388   1.976   1_455 S
Co2227 N2486   1.976   .     S
Co2228 N2246   1.976   .     S
Co2228 N3036   1.976   1_545 S
C2229  C3026   1.374   1_545 S
C2229  C2232   1.490   .     S
C2230  C2995   1.379   1_545 S
C2230  C2231   1.481   .     S
C2231  C3028   1.375   1_545 S
C2232  C3027   1.372   1_545 S
C2233  C3002   1.374   1_545 S
C2233  C2236   1.490   .     S
C2234  C3019   1.379   1_545 S
C2234  C2235   1.481   .     S
C2235  C3004   1.375   1_545 S
C2236  C3003   1.372   1_545 S
C2237  C2396   1.374   1_455 S
C2237  C2240   1.490   .     S
C2238  C2419   1.379   1_455 S
C2238  C2239   1.481   .     S
C2239  C2398   1.375   1_455 S
C2240  C2397   1.372   1_455 S
C2241  C2426   1.374   1_455 S
C2241  C2244   1.490   .     S
C2242  C2401   1.379   1_455 S
C2242  C2243   1.481   .     S
C2243  C2428   1.375   1_455 S
C2244  C2427   1.372   1_455 S
N2245  Co2293  1.980   .     S
N2245  C2247   1.327   .     S
N2245  N2547   1.357   .     S
N2246  C2248   1.335   .     S
N2246  N3092   1.349   1_545 S
C2247  C2570   1.379   .     S
C2248  C2297   1.374   .     S
C2249  C2300   1.372   .     S
C2249  C2250   1.372   .     S
C2250  C2299   1.375   .     S
N2251  Co2294  1.980   .     S
N2251  C2253   1.327   .     S
N2251  N3085   1.357   1_545 S
N2252  C2254   1.335   .     S
N2252  Co2363  1.976   .     S
N2252  N2542   1.349   .     S
C2253  C2302   1.379   .     S
C2254  C2573   1.374   .     S
C2255  C2576   1.372   .     S
C2255  C2256   1.372   .     S
C2256  C2575   1.375   .     S
N2257  Co2295  1.980   .     S
N2257  C2259   1.327   .     S
N2258  C2260   1.335   .     S
N2258  Co3109  1.976   1_545 S
N2258  N2350   1.349   .     S
C2259  C2306   1.379   .     S
C2260  C2373   1.374   .     S
C2261  C2376   1.372   .     S
C2261  C2262   1.372   .     S
C2262  C2375   1.375   .     S
N2263  Co2296  1.980   .     S
N2263  C2265   1.327   .     S
N2264  C2266   1.335   .     S
N2264  Co2566  1.976   .     S
N2264  N3308   1.349   .     S
C2265  C2378   1.379   .     S
C2266  C3397   1.374   .     S
C2267  C3400   1.372   .     S
C2267  C2268   1.372   .     S
C2268  C3399   1.375   .     S
N2269  Co2295  1.980   .     S
N2269  C2271   1.327   .     S
N2269  N2523   1.357   .     S
N2270  C2272   1.335   .     S
N2270  Co2362  1.976   .     S
N2270  N3068   1.349   1_545 S
C2271  C2574   1.379   .     S
C2272  C2301   1.374   .     S
C2273  C2304   1.372   .     S
C2273  C2274   1.372   .     S
C2274  C2303   1.375   .     S
N2275  Co2296  1.980   .     S
N2275  C2277   1.327   .     S
N2275  N3061   1.357   1_545 S
N2276  C2278   1.335   .     S
N2276  N2518   1.349   .     S
C2277  C2298   1.379   .     S
C2278  C2569   1.374   .     S
C2279  C2572   1.372   .     S
C2279  C2280   1.372   .     S
C2280  C2571   1.375   .     S
N2281  Co2293  1.980   .     S
N2281  C2283   1.327   .     S
N2281  N2325   1.357   .     S
N2282  C2284   1.335   .     S
N2282  Co3111  1.976   1_545 S
C2283  C2374   1.379   .     S
C2284  C2305   1.374   .     S
C2285  C2308   1.372   .     S
C2285  C2286   1.372   .     S
C2286  C2307   1.375   .     S
N2287  Co2294  1.980   .     S
N2287  C2289   1.327   .     S
N2287  N3283   1.357   .     S
N2288  C2290   1.335   .     S
N2288  Co2568  1.976   .     S
C2289  C3398   1.379   .     S
C2290  C2377   1.374   .     S
C2291  C2380   1.372   .     S
C2291  C2292   1.372   .     S
C2292  C2379   1.375   .     S
Co2293 N2530   1.976   .     S
Co2293 N2344   1.976   .     S
Co2294 N3080   1.976   1_545 S
Co2295 N2554   1.976   .     S
Co2296 N2314   1.976   .     S
Co2296 N3104   1.976   1_545 S
C2297  C3094   1.374   1_545 S
C2297  C2300   1.490   .     S
C2298  C3063   1.379   1_545 S
C2298  C2299   1.481   .     S
C2299  C3096   1.375   1_545 S
C2300  C3095   1.372   1_545 S
C2301  C3070   1.374   1_545 S
C2301  C2304   1.490   .     S
C2302  C3087   1.379   1_545 S
C2302  C2303   1.481   .     S
C2303  C3072   1.375   1_545 S
C2304  C3071   1.372   1_545 S
C2305  C2308   1.490   .     S
C2306  C2307   1.481   .     S
C2309  C2312   1.490   .     S
C2310  C2311   1.481   .     S
N2313  Co2361  1.980   .     S
N2313  C2315   1.327   .     S
N2313  N2615   1.357   .     S
N2314  C2316   1.335   .     S
N2314  N3160   1.349   1_545 S
C2315  C2638   1.379   .     S
C2316  C2365   1.374   .     S
C2317  C2368   1.372   .     S
C2317  C2318   1.372   .     S
C2318  C2367   1.375   .     S
N2319  Co2362  1.980   .     S
N2319  C2321   1.327   .     S
N2319  N3153   1.357   1_545 S
N2320  C2322   1.335   .     S
N2320  Co2431  1.976   .     S
N2320  N2610   1.349   .     S
C2321  C2370   1.379   .     S
C2322  C2641   1.374   .     S
C2323  C2644   1.372   .     S
C2323  C2324   1.372   .     S
C2324  C2643   1.375   .     S
N2325  Co2363  1.980   .     S
N2325  C2327   1.327   .     S
N2326  C2328   1.335   .     S
N2326  Co3177  1.976   1_545 S
N2326  N2418   1.349   .     S
C2327  C2374   1.379   .     S
C2328  C2441   1.374   .     S
C2329  C2444   1.372   .     S
C2329  C2330   1.372   .     S
C2330  C2443   1.375   .     S
N2331  Co2364  1.980   .     S
N2331  C2333   1.327   .     S
N2332  C2334   1.335   .     S
N2332  Co2634  1.976   .     S
N2332  N3376   1.349   .     S
C2333  C2446   1.379   .     S
C2334  C3465   1.374   .     S
C2335  C3468   1.372   .     S
C2335  C2336   1.372   .     S
C2336  C3467   1.375   .     S
N2337  Co2363  1.980   .     S
N2337  C2339   1.327   .     S
N2337  N2591   1.357   .     S
N2338  C2340   1.335   .     S
N2338  Co2430  1.976   .     S
N2338  N3136   1.349   1_545 S
C2339  C2642   1.379   .     S
C2340  C2369   1.374   .     S
C2341  C2372   1.372   .     S
C2341  C2342   1.372   .     S
C2342  C2371   1.375   .     S
N2343  Co2364  1.980   .     S
N2343  C2345   1.327   .     S
N2343  N3129   1.357   1_545 S
N2344  C2346   1.335   .     S
N2344  N2586   1.349   .     S
C2345  C2366   1.379   .     S
C2346  C2637   1.374   .     S
C2347  C2640   1.372   .     S
C2347  C2348   1.372   .     S
C2348  C2639   1.375   .     S
N2349  Co2361  1.980   .     S
N2349  C2351   1.327   .     S
N2349  N2393   1.357   .     S
N2350  C2352   1.335   .     S
N2350  Co3179  1.976   1_545 S
C2351  C2442   1.379   .     S
C2352  C2373   1.374   .     S
C2353  C2376   1.372   .     S
C2353  C2354   1.372   .     S
C2354  C2375   1.375   .     S
N2355  Co2362  1.980   .     S
N2355  C2357   1.327   .     S
N2355  N3351   1.357   .     S
N2356  C2358   1.335   .     S
N2356  Co2636  1.976   .     S
C2357  C3466   1.379   .     S
C2358  C2445   1.374   .     S
C2359  C2448   1.372   .     S
C2359  C2360   1.372   .     S
C2360  C2447   1.375   .     S
Co2361 N2598   1.976   .     S
Co2361 N2412   1.976   .     S
Co2362 N3148   1.976   1_545 S
Co2363 N2622   1.976   .     S
Co2364 N2382   1.976   .     S
Co2364 N3172   1.976   1_545 S
C2365  C3162   1.374   1_545 S
C2365  C2368   1.490   .     S
C2366  C3131   1.379   1_545 S
C2366  C2367   1.481   .     S
C2367  C3164   1.375   1_545 S
C2368  C3163   1.372   1_545 S
C2369  C3138   1.374   1_545 S
C2369  C2372   1.490   .     S
C2370  C3155   1.379   1_545 S
C2370  C2371   1.481   .     S
C2371  C3140   1.375   1_545 S
C2372  C3139   1.372   1_545 S
C2373  C2376   1.490   .     S
C2374  C2375   1.481   .     S
C2377  C2380   1.490   .     S
C2378  C2379   1.481   .     S
N2381  Co2429  1.980   .     S
N2381  C2383   1.327   .     S
N2381  N2683   1.357   .     S
N2382  C2384   1.335   .     S
N2382  N3228   1.349   1_545 S
C2383  C2706   1.379   .     S
C2384  C2433   1.374   .     S
C2385  C2436   1.372   .     S
C2385  C2386   1.372   .     S
C2386  C2435   1.375   .     S
N2387  Co2430  1.980   .     S
N2387  C2389   1.327   .     S
N2387  N3221   1.357   1_545 S
N2388  C2390   1.335   .     S
N2388  Co2227  1.976   1_655 S
N2388  N2678   1.349   .     S
C2389  C2438   1.379   .     S
C2390  C2709   1.374   .     S
C2391  C2712   1.372   .     S
C2391  C2392   1.372   .     S
C2392  C2711   1.375   .     S
N2393  Co2431  1.980   .     S
N2393  C2395   1.327   .     S
N2394  C2396   1.335   .     S
N2394  Co3245  1.976   1_545 S
N2394  N2214   1.349   1_655 S
C2395  C2442   1.379   .     S
C2396  C2237   1.374   1_655 S
C2397  C2240   1.372   1_655 S
C2397  C2398   1.372   .     S
C2398  C2239   1.375   1_655 S
N2399  Co2432  1.980   .     S
N2399  C2401   1.327   .     S
N2399  N1131   1.357   1_655 S
N2400  C2402   1.335   .     S
N2400  Co2702  1.976   .     S
N2400  N3444   1.349   .     S
C2401  C2242   1.379   1_655 S
C2402  C3533   1.374   .     S
C2403  C3536   1.372   .     S
C2403  C2404   1.372   .     S
C2404  C3535   1.375   .     S
N2405  Co2431  1.980   .     S
N2405  C2407   1.327   .     S
N2405  N2659   1.357   .     S
N2406  C2408   1.335   .     S
N2406  Co2226  1.976   1_655 S
N2406  N3204   1.349   1_545 S
C2407  C2710   1.379   .     S
C2408  C2437   1.374   .     S
C2409  C2440   1.372   .     S
C2409  C2410   1.372   .     S
C2410  C2439   1.375   .     S
N2411  Co2432  1.980   .     S
N2411  C2413   1.327   .     S
N2411  N3197   1.357   1_545 S
N2412  C2414   1.335   .     S
N2412  N2654   1.349   .     S
C2413  C2434   1.379   .     S
C2414  C2705   1.374   .     S
C2415  C2708   1.372   .     S
C2415  C2416   1.372   .     S
C2416  C2707   1.375   .     S
N2417  Co2429  1.980   .     S
N2417  C2419   1.327   .     S
N2417  N2189   1.357   1_655 S
N2418  C2420   1.335   .     S
N2418  Co3247  1.976   1_545 S
C2419  C2238   1.379   1_655 S
C2420  C2441   1.374   .     S
C2421  C2444   1.372   .     S
C2421  C2422   1.372   .     S
C2422  C2443   1.375   .     S
N2423  Co2430  1.980   .     S
N2423  C2425   1.327   .     S
N2423  N3419   1.357   .     S
N2424  C2426   1.335   .     S
N2424  Co2704  1.976   .     S
N2424  N1108   1.349   1_655 S
C2425  C3534   1.379   .     S
C2426  C2241   1.374   1_655 S
C2427  C2244   1.372   1_655 S
C2427  C2428   1.372   .     S
C2428  C2243   1.375   1_655 S
Co2429 N2666   1.976   .     S
Co2429 N2208   1.976   1_655 S
Co2430 N3216   1.976   1_545 S
Co2431 N2690   1.976   .     S
Co2432 N2178   1.976   1_655 S
Co2432 N3240   1.976   1_545 S
C2433  C3230   1.374   1_545 S
C2433  C2436   1.490   .     S
C2434  C3199   1.379   1_545 S
C2434  C2435   1.481   .     S
C2435  C3232   1.375   1_545 S
C2436  C3231   1.372   1_545 S
C2437  C3206   1.374   1_545 S
C2437  C2440   1.490   .     S
C2438  C3223   1.379   1_545 S
C2438  C2439   1.481   .     S
C2439  C3208   1.375   1_545 S
C2440  C3207   1.372   1_545 S
C2441  C2444   1.490   .     S
C2442  C2443   1.481   .     S
C2445  C2448   1.490   .     S
C2446  C2447   1.481   .     S
N2449  Co2497  1.980   .     S
N2449  C2451   1.327   .     S
N2449  N2751   1.357   .     S
N2450  C2452   1.335   .     S
N2450  Co2704  1.976   1_455 S
C2451  C2774   1.379   .     S
C2452  C2501   1.374   .     S
C2453  C2504   1.372   .     S
C2453  C2454   1.372   .     S
C2454  C2503   1.375   .     S
N2455  Co2498  1.980   .     S
N2455  C2457   1.327   .     S
N2456  C2458   1.335   .     S
N2456  Co2567  1.976   .     S
N2456  N2746   1.349   .     S
C2457  C2506   1.379   .     S
C2458  C2777   1.374   .     S
C2459  C2780   1.372   .     S
C2459  C2460   1.372   .     S
C2460  C2779   1.375   .     S
N2461  Co2499  1.980   .     S
N2461  C2463   1.327   .     S
N2461  N2689   1.357   1_455 S
N2462  C2464   1.335   .     S
N2462  N2554   1.349   .     S
C2463  C2510   1.379   .     S
C2464  C2577   1.374   .     S
C2465  C2580   1.372   .     S
C2465  C2466   1.372   .     S
C2466  C2579   1.375   .     S
N2467  Co2500  1.980   .     S
N2467  C2469   1.327   .     S
N2468  C2470   1.335   .     S
N2468  Co2770  1.976   .     S
N2468  N3784   1.349   1_455 S
C2469  C2582   1.379   .     S
C2470  C3601   1.374   .     S
C2471  C3604   1.372   .     S
C2471  C2472   1.372   .     S
C2472  C3603   1.375   .     S
N2473  Co2499  1.980   .     S
N2473  C2475   1.327   .     S
N2473  N2727   1.357   .     S
N2474  C2476   1.335   .     S
N2474  Co2566  1.976   .     S
C2475  C2778   1.379   .     S
C2476  C2505   1.374   .     S
C2477  C2508   1.372   .     S
C2477  C2478   1.372   .     S
C2478  C2507   1.375   .     S
N2479  Co2500  1.980   .     S
N2479  C2481   1.327   .     S
N2480  C2482   1.335   .     S
N2480  Co2701  1.976   1_455 S
N2480  N2722   1.349   .     S
C2481  C2502   1.379   .     S
C2482  C2773   1.374   .     S
C2483  C2776   1.372   .     S
C2483  C2484   1.372   .     S
C2484  C2775   1.375   .     S
N2485  Co2497  1.980   .     S
N2485  C2487   1.327   .     S
N2485  N2529   1.357   .     S
N2486  C2488   1.335   .     S
N2486  N2666   1.349   1_455 S
C2487  C2578   1.379   .     S
C2488  C2509   1.374   .     S
C2489  C2512   1.372   .     S
C2489  C2490   1.372   .     S
C2490  C2511   1.375   .     S
N2491  Co2498  1.980   .     S
N2491  C2493   1.327   .     S
N2491  N3759   1.357   1_455 S
N2492  C2494   1.335   .     S
N2492  Co2772  1.976   .     S
C2493  C3602   1.379   .     S
C2494  C2581   1.374   .     S
C2495  C2584   1.372   .     S
C2495  C2496   1.372   .     S
C2496  C2583   1.375   .     S
Co2497 N2734   1.976   .     S
Co2497 N2548   1.976   .     S
Co2498 N2678   1.976   1_455 S
Co2499 N2660   1.976   1_455 S
Co2499 N2758   1.976   .     S
Co2500 N2518   1.976   .     S
C2501  C2504   1.490   .     S
C2502  C2503   1.481   .     S
C2505  C2508   1.490   .     S
C2506  C2507   1.481   .     S
C2509  C2668   1.374   1_455 S
C2509  C2512   1.490   .     S
C2510  C2691   1.379   1_455 S
C2510  C2511   1.481   .     S
C2511  C2670   1.375   1_455 S
C2512  C2669   1.372   1_455 S
C2513  C2698   1.374   1_455 S
C2513  C2516   1.490   .     S
C2514  C2673   1.379   1_455 S
C2514  C2515   1.481   .     S
C2515  C2700   1.375   1_455 S
C2516  C2699   1.372   1_455 S
N2517  Co2565  1.980   .     S
N2517  C2519   1.327   .     S
N2517  N2819   1.357   .     S
N2518  C2520   1.335   .     S
C2519  C2842   1.379   .     S
C2520  C2569   1.374   .     S
C2521  C2572   1.372   .     S
C2521  C2522   1.372   .     S
C2522  C2571   1.375   .     S
N2523  Co2566  1.980   .     S
N2523  C2525   1.327   .     S
N2524  C2526   1.335   .     S
N2524  Co2635  1.976   .     S
N2524  N2814   1.349   .     S
C2525  C2574   1.379   .     S
C2526  C2845   1.374   .     S
C2527  C2848   1.372   .     S
C2527  C2528   1.372   .     S
C2528  C2847   1.375   .     S
N2529  Co2567  1.980   .     S
N2529  C2531   1.327   .     S
N2530  C2532   1.335   .     S
N2530  N2622   1.349   .     S
C2531  C2578   1.379   .     S
C2532  C2645   1.374   .     S
C2533  C2648   1.372   .     S
C2533  C2534   1.372   .     S
C2534  C2647   1.375   .     S
N2535  Co2568  1.980   .     S
N2535  C2537   1.327   .     S
N2536  C2538   1.335   .     S
N2536  Co2838  1.976   .     S
N2536  N3580   1.349   .     S
C2537  C2650   1.379   .     S
C2538  C3669   1.374   .     S
C2539  C3672   1.372   .     S
C2539  C2540   1.372   .     S
C2540  C3671   1.375   .     S
N2541  Co2567  1.980   .     S
N2541  C2543   1.327   .     S
N2541  N2795   1.357   .     S
N2542  C2544   1.335   .     S
N2542  Co2634  1.976   .     S
C2543  C2846   1.379   .     S
C2544  C2573   1.374   .     S
C2545  C2576   1.372   .     S
C2545  C2546   1.372   .     S
C2546  C2575   1.375   .     S
N2547  Co2568  1.980   .     S
N2547  C2549   1.327   .     S
N2548  C2550   1.335   .     S
N2548  N2790   1.349   .     S
C2549  C2570   1.379   .     S
C2550  C2841   1.374   .     S
C2551  C2844   1.372   .     S
C2551  C2552   1.372   .     S
C2552  C2843   1.375   .     S
N2553  Co2565  1.980   .     S
N2553  C2555   1.327   .     S
N2553  N2597   1.357   .     S
N2554  C2556   1.335   .     S
C2555  C2646   1.379   .     S
C2556  C2577   1.374   .     S
C2557  C2580   1.372   .     S
C2557  C2558   1.372   .     S
C2558  C2579   1.375   .     S
N2559  Co2566  1.980   .     S
N2559  C2561   1.327   .     S
N2559  N3555   1.357   .     S
N2560  C2562   1.335   .     S
N2560  Co2840  1.976   .     S
C2561  C3670   1.379   .     S
C2562  C2649   1.374   .     S
C2563  C2652   1.372   .     S
C2563  C2564   1.372   .     S
C2564  C2651   1.375   .     S
Co2565 N2802   1.976   .     S
Co2565 N2616   1.976   .     S
Co2567 N2826   1.976   .     S
Co2568 N2586   1.976   .     S
C2569  C2572   1.490   .     S
C2570  C2571   1.481   .     S
C2573  C2576   1.490   .     S
C2574  C2575   1.481   .     S
C2577  C2580   1.490   .     S
C2578  C2579   1.481   .     S
C2581  C2584   1.490   .     S
C2582  C2583   1.481   .     S
N2585  Co2633  1.980   .     S
N2585  C2587   1.327   .     S
N2585  N2887   1.357   .     S
N2586  C2588   1.335   .     S
C2587  C2910   1.379   .     S
C2588  C2637   1.374   .     S
C2589  C2640   1.372   .     S
C2589  C2590   1.372   .     S
C2590  C2639   1.375   .     S
N2591  Co2634  1.980   .     S
N2591  C2593   1.327   .     S
N2592  C2594   1.335   .     S
N2592  Co2703  1.976   .     S
N2592  N2882   1.349   .     S
C2593  C2642   1.379   .     S
C2594  C2913   1.374   .     S
C2595  C2916   1.372   .     S
C2595  C2596   1.372   .     S
C2596  C2915   1.375   .     S
N2597  Co2635  1.980   .     S
N2597  C2599   1.327   .     S
N2598  C2600   1.335   .     S
N2598  N2690   1.349   .     S
C2599  C2646   1.379   .     S
C2600  C2713   1.374   .     S
C2601  C2716   1.372   .     S
C2601  C2602   1.372   .     S
C2602  C2715   1.375   .     S
N2603  Co2636  1.980   .     S
N2603  C2605   1.327   .     S
N2604  C2606   1.335   .     S
N2604  Co2906  1.976   .     S
N2604  N3648   1.349   .     S
C2605  C2718   1.379   .     S
C2606  C3737   1.374   .     S
C2607  C3740   1.372   .     S
C2607  C2608   1.372   .     S
C2608  C3739   1.375   .     S
N2609  Co2635  1.980   .     S
N2609  C2611   1.327   .     S
N2609  N2863   1.357   .     S
N2610  C2612   1.335   .     S
N2610  Co2702  1.976   .     S
C2611  C2914   1.379   .     S
C2612  C2641   1.374   .     S
C2613  C2644   1.372   .     S
C2613  C2614   1.372   .     S
C2614  C2643   1.375   .     S
N2615  Co2636  1.980   .     S
N2615  C2617   1.327   .     S
N2616  C2618   1.335   .     S
N2616  N2858   1.349   .     S
C2617  C2638   1.379   .     S
C2618  C2909   1.374   .     S
C2619  C2912   1.372   .     S
C2619  C2620   1.372   .     S
C2620  C2911   1.375   .     S
N2621  Co2633  1.980   .     S
N2621  C2623   1.327   .     S
N2621  N2665   1.357   .     S
N2622  C2624   1.335   .     S
C2623  C2714   1.379   .     S
C2624  C2645   1.374   .     S
C2625  C2648   1.372   .     S
C2625  C2626   1.372   .     S
C2626  C2647   1.375   .     S
N2627  Co2634  1.980   .     S
N2627  C2629   1.327   .     S
N2627  N3623   1.357   .     S
N2628  C2630   1.335   .     S
N2628  Co2908  1.976   .     S
C2629  C3738   1.379   .     S
C2630  C2717   1.374   .     S
C2631  C2720   1.372   .     S
C2631  C2632   1.372   .     S
C2632  C2719   1.375   .     S
Co2633 N2870   1.976   .     S
Co2633 N2684   1.976   .     S
Co2635 N2894   1.976   .     S
Co2636 N2654   1.976   .     S
C2637  C2640   1.490   .     S
C2638  C2639   1.481   .     S
C2641  C2644   1.490   .     S
C2642  C2643   1.481   .     S
C2645  C2648   1.490   .     S
C2646  C2647   1.481   .     S
C2649  C2652   1.490   .     S
C2650  C2651   1.481   .     S
N2653  Co2701  1.980   .     S
N2653  C2655   1.327   .     S
N2653  N2955   1.357   .     S
N2654  C2656   1.335   .     S
C2655  C2978   1.379   .     S
C2656  C2705   1.374   .     S
C2657  C2708   1.372   .     S
C2657  C2658   1.372   .     S
C2658  C2707   1.375   .     S
N2659  Co2702  1.980   .     S
N2659  C2661   1.327   .     S
N2660  C2662   1.335   .     S
N2660  Co2499  1.976   1_655 S
N2660  N2950   1.349   .     S
C2661  C2710   1.379   .     S
C2662  C2981   1.374   .     S
C2663  C2984   1.372   .     S
C2663  C2664   1.372   .     S
C2664  C2983   1.375   .     S
N2665  Co2703  1.980   .     S
N2665  C2667   1.327   .     S
N2666  C2668   1.335   .     S
N2666  N2486   1.349   1_655 S
C2667  C2714   1.379   .     S
C2668  C2509   1.374   1_655 S
C2669  C2512   1.372   1_655 S
C2669  C2670   1.372   .     S
C2670  C2511   1.375   1_655 S
N2671  Co2704  1.980   .     S
N2671  C2673   1.327   .     S
N2671  N1403   1.357   1_655 S
N2672  C2674   1.335   .     S
N2672  Co2974  1.976   .     S
N2672  N3716   1.349   .     S
C2673  C2514   1.379   1_655 S
C2674  C3805   1.374   .     S
C2675  C3808   1.372   .     S
C2675  C2676   1.372   .     S
C2676  C3807   1.375   .     S
N2677  Co2703  1.980   .     S
N2677  C2679   1.327   .     S
N2677  N2931   1.357   .     S
N2678  C2680   1.335   .     S
N2678  Co2498  1.976   1_655 S
C2679  C2982   1.379   .     S
C2680  C2709   1.374   .     S
C2681  C2712   1.372   .     S
C2681  C2682   1.372   .     S
C2682  C2711   1.375   .     S
N2683  Co2704  1.980   .     S
N2683  C2685   1.327   .     S
N2684  C2686   1.335   .     S
N2684  N2926   1.349   .     S
C2685  C2706   1.379   .     S
C2686  C2977   1.374   .     S
C2687  C2980   1.372   .     S
C2687  C2688   1.372   .     S
C2688  C2979   1.375   .     S
N2689  Co2701  1.980   .     S
N2689  C2691   1.327   .     S
N2689  N2461   1.357   1_655 S
N2690  C2692   1.335   .     S
C2691  C2510   1.379   1_655 S
C2692  C2713   1.374   .     S
C2693  C2716   1.372   .     S
C2693  C2694   1.372   .     S
C2694  C2715   1.375   .     S
N2695  Co2702  1.980   .     S
N2695  C2697   1.327   .     S
N2695  N3691   1.357   .     S
N2696  C2698   1.335   .     S
N2696  Co2976  1.976   .     S
N2696  N1380   1.349   1_655 S
C2697  C3806   1.379   .     S
C2698  C2513   1.374   1_655 S
C2699  C2516   1.372   1_655 S
C2699  C2700   1.372   .     S
C2700  C2515   1.375   1_655 S
Co2701 N2938   1.976   .     S
Co2701 N2480   1.976   1_655 S
Co2703 N2962   1.976   .     S
Co2704 N2450   1.976   1_655 S
C2705  C2708   1.490   .     S
C2706  C2707   1.481   .     S
C2709  C2712   1.490   .     S
C2710  C2711   1.481   .     S
C2713  C2716   1.490   .     S
C2714  C2715   1.481   .     S
C2717  C2720   1.490   .     S
C2718  C2719   1.481   .     S
N2721  Co2769  1.980   .     S
N2721  C2723   1.327   .     S
N2721  N3023   1.357   .     S
N2722  C2724   1.335   .     S
N2722  Co2976  1.976   1_455 S
C2723  C3046   1.379   .     S
C2724  C2773   1.374   .     S
C2725  C2776   1.372   .     S
C2725  C2726   1.372   .     S
C2726  C2775   1.375   .     S
N2727  Co2770  1.980   .     S
N2727  C2729   1.327   .     S
N2728  C2730   1.335   .     S
N2728  Co2839  1.976   .     S
N2728  N3018   1.349   .     S
C2729  C2778   1.379   .     S
C2730  C3049   1.374   .     S
C2731  C3052   1.372   .     S
C2731  C2732   1.372   .     S
C2732  C3051   1.375   .     S
N2733  Co2771  1.980   .     S
N2733  C2735   1.327   .     S
N2733  N2961   1.357   1_455 S
N2734  C2736   1.335   .     S
N2734  N2826   1.349   .     S
C2735  C2782   1.379   .     S
C2736  C2849   1.374   .     S
C2737  C2852   1.372   .     S
C2737  C2738   1.372   .     S
C2738  C2851   1.375   .     S
N2739  Co2772  1.980   .     S
N2739  C2741   1.327   .     S
N2740  C2742   1.335   .     S
N2740  Co3042  1.976   .     S
N2740  N4056   1.349   1_455 S
C2741  C2854   1.379   .     S
C2742  C3873   1.374   .     S
C2743  C3876   1.372   .     S
C2743  C2744   1.372   .     S
C2744  C3875   1.375   .     S
N2745  Co2771  1.980   .     S
N2745  C2747   1.327   .     S
N2745  N2999   1.357   .     S
N2746  C2748   1.335   .     S
N2746  Co2838  1.976   .     S
C2747  C3050   1.379   .     S
C2748  C2777   1.374   .     S
C2749  C2780   1.372   .     S
C2749  C2750   1.372   .     S
C2750  C2779   1.375   .     S
N2751  Co2772  1.980   .     S
N2751  C2753   1.327   .     S
N2752  C2754   1.335   .     S
N2752  Co2973  1.976   1_455 S
N2752  N2994   1.349   .     S
C2753  C2774   1.379   .     S
C2754  C3045   1.374   .     S
C2755  C3048   1.372   .     S
C2755  C2756   1.372   .     S
C2756  C3047   1.375   .     S
N2757  Co2769  1.980   .     S
N2757  C2759   1.327   .     S
N2757  N2801   1.357   .     S
N2758  C2760   1.335   .     S
N2758  N2938   1.349   1_455 S
C2759  C2850   1.379   .     S
C2760  C2781   1.374   .     S
C2761  C2784   1.372   .     S
C2761  C2762   1.372   .     S
C2762  C2783   1.375   .     S
N2763  Co2770  1.980   .     S
N2763  C2765   1.327   .     S
N2763  N4031   1.357   1_455 S
N2764  C2766   1.335   .     S
N2764  Co3044  1.976   .     S
C2765  C3874   1.379   .     S
C2766  C2853   1.374   .     S
C2767  C2856   1.372   .     S
C2767  C2768   1.372   .     S
C2768  C2855   1.375   .     S
Co2769 N3006   1.976   .     S
Co2769 N2820   1.976   .     S
Co2770 N2950   1.976   1_455 S
Co2771 N2932   1.976   1_455 S
Co2771 N3030   1.976   .     S
Co2772 N2790   1.976   .     S
C2773  C2776   1.490   .     S
C2774  C2775   1.481   .     S
C2777  C2780   1.490   .     S
C2778  C2779   1.481   .     S
C2781  C2940   1.374   1_455 S
C2781  C2784   1.490   .     S
C2782  C2963   1.379   1_455 S
C2782  C2783   1.481   .     S
C2783  C2942   1.375   1_455 S
C2784  C2941   1.372   1_455 S
C2785  C2970   1.374   1_455 S
C2785  C2788   1.490   .     S
C2786  C2945   1.379   1_455 S
C2786  C2787   1.481   .     S
C2787  C2972   1.375   1_455 S
C2788  C2971   1.372   1_455 S
N2789  Co2837  1.980   .     S
N2789  C2791   1.327   .     S
N2789  N3091   1.357   .     S
N2790  C2792   1.335   .     S
C2791  C3114   1.379   .     S
C2792  C2841   1.374   .     S
C2793  C2844   1.372   .     S
C2793  C2794   1.372   .     S
C2794  C2843   1.375   .     S
N2795  Co2838  1.980   .     S
N2795  C2797   1.327   .     S
N2796  C2798   1.335   .     S
N2796  Co2907  1.976   .     S
N2796  N3086   1.349   .     S
C2797  C2846   1.379   .     S
C2798  C3117   1.374   .     S
C2799  C3120   1.372   .     S
C2799  C2800   1.372   .     S
C2800  C3119   1.375   .     S
N2801  Co2839  1.980   .     S
N2801  C2803   1.327   .     S
N2802  C2804   1.335   .     S
N2802  N2894   1.349   .     S
C2803  C2850   1.379   .     S
C2804  C2917   1.374   .     S
C2805  C2920   1.372   .     S
C2805  C2806   1.372   .     S
C2806  C2919   1.375   .     S
N2807  Co2840  1.980   .     S
N2807  C2809   1.327   .     S
N2808  C2810   1.335   .     S
N2808  Co3110  1.976   .     S
N2808  N3852   1.349   .     S
C2809  C2922   1.379   .     S
C2810  C3941   1.374   .     S
C2811  C3944   1.372   .     S
C2811  C2812   1.372   .     S
C2812  C3943   1.375   .     S
N2813  Co2839  1.980   .     S
N2813  C2815   1.327   .     S
N2813  N3067   1.357   .     S
N2814  C2816   1.335   .     S
N2814  Co2906  1.976   .     S
C2815  C3118   1.379   .     S
C2816  C2845   1.374   .     S
C2817  C2848   1.372   .     S
C2817  C2818   1.372   .     S
C2818  C2847   1.375   .     S
N2819  Co2840  1.980   .     S
N2819  C2821   1.327   .     S
N2820  C2822   1.335   .     S
N2820  N3062   1.349   .     S
C2821  C2842   1.379   .     S
C2822  C3113   1.374   .     S
C2823  C3116   1.372   .     S
C2823  C2824   1.372   .     S
C2824  C3115   1.375   .     S
N2825  Co2837  1.980   .     S
N2825  C2827   1.327   .     S
N2825  N2869   1.357   .     S
N2826  C2828   1.335   .     S
C2827  C2918   1.379   .     S
C2828  C2849   1.374   .     S
C2829  C2852   1.372   .     S
C2829  C2830   1.372   .     S
C2830  C2851   1.375   .     S
N2831  Co2838  1.980   .     S
N2831  C2833   1.327   .     S
N2831  N3827   1.357   .     S
N2832  C2834   1.335   .     S
N2832  Co3112  1.976   .     S
C2833  C3942   1.379   .     S
C2834  C2921   1.374   .     S
C2835  C2924   1.372   .     S
C2835  C2836   1.372   .     S
C2836  C2923   1.375   .     S
Co2837 N3074   1.976   .     S
Co2837 N2888   1.976   .     S
Co2839 N3098   1.976   .     S
Co2840 N2858   1.976   .     S
C2841  C2844   1.490   .     S
C2842  C2843   1.481   .     S
C2845  C2848   1.490   .     S
C2846  C2847   1.481   .     S
C2849  C2852   1.490   .     S
C2850  C2851   1.481   .     S
C2853  C2856   1.490   .     S
C2854  C2855   1.481   .     S
N2857  Co2905  1.980   .     S
N2857  C2859   1.327   .     S
N2857  N3159   1.357   .     S
N2858  C2860   1.335   .     S
C2859  C3182   1.379   .     S
C2860  C2909   1.374   .     S
C2861  C2912   1.372   .     S
C2861  C2862   1.372   .     S
C2862  C2911   1.375   .     S
N2863  Co2906  1.980   .     S
N2863  C2865   1.327   .     S
N2864  C2866   1.335   .     S
N2864  Co2975  1.976   .     S
N2864  N3154   1.349   .     S
C2865  C2914   1.379   .     S
C2866  C3185   1.374   .     S
C2867  C3188   1.372   .     S
C2867  C2868   1.372   .     S
C2868  C3187   1.375   .     S
N2869  Co2907  1.980   .     S
N2869  C2871   1.327   .     S
N2870  C2872   1.335   .     S
N2870  N2962   1.349   .     S
C2871  C2918   1.379   .     S
C2872  C2985   1.374   .     S
C2873  C2988   1.372   .     S
C2873  C2874   1.372   .     S
C2874  C2987   1.375   .     S
N2875  Co2908  1.980   .     S
N2875  C2877   1.327   .     S
N2876  C2878   1.335   .     S
N2876  Co3178  1.976   .     S
N2876  N3920   1.349   .     S
C2877  C2990   1.379   .     S
C2878  C4009   1.374   .     S
C2879  C4012   1.372   .     S
C2879  C2880   1.372   .     S
C2880  C4011   1.375   .     S
N2881  Co2907  1.980   .     S
N2881  C2883   1.327   .     S
N2881  N3135   1.357   .     S
N2882  C2884   1.335   .     S
N2882  Co2974  1.976   .     S
C2883  C3186   1.379   .     S
C2884  C2913   1.374   .     S
C2885  C2916   1.372   .     S
C2885  C2886   1.372   .     S
C2886  C2915   1.375   .     S
N2887  Co2908  1.980   .     S
N2887  C2889   1.327   .     S
N2888  C2890   1.335   .     S
N2888  N3130   1.349   .     S
C2889  C2910   1.379   .     S
C2890  C3181   1.374   .     S
C2891  C3184   1.372   .     S
C2891  C2892   1.372   .     S
C2892  C3183   1.375   .     S
N2893  Co2905  1.980   .     S
N2893  C2895   1.327   .     S
N2893  N2937   1.357   .     S
N2894  C2896   1.335   .     S
C2895  C2986   1.379   .     S
C2896  C2917   1.374   .     S
C2897  C2920   1.372   .     S
C2897  C2898   1.372   .     S
C2898  C2919   1.375   .     S
N2899  Co2906  1.980   .     S
N2899  C2901   1.327   .     S
N2899  N3895   1.357   .     S
N2900  C2902   1.335   .     S
N2900  Co3180  1.976   .     S
C2901  C4010   1.379   .     S
C2902  C2989   1.374   .     S
C2903  C2992   1.372   .     S
C2903  C2904   1.372   .     S
C2904  C2991   1.375   .     S
Co2905 N3142   1.976   .     S
Co2905 N2956   1.976   .     S
Co2907 N3166   1.976   .     S
Co2908 N2926   1.976   .     S
C2909  C2912   1.490   .     S
C2910  C2911   1.481   .     S
C2913  C2916   1.490   .     S
C2914  C2915   1.481   .     S
C2917  C2920   1.490   .     S
C2918  C2919   1.481   .     S
C2921  C2924   1.490   .     S
C2922  C2923   1.481   .     S
N2925  Co2973  1.980   .     S
N2925  C2927   1.327   .     S
N2925  N3227   1.357   .     S
N2926  C2928   1.335   .     S
C2927  C3250   1.379   .     S
C2928  C2977   1.374   .     S
C2929  C2980   1.372   .     S
C2929  C2930   1.372   .     S
C2930  C2979   1.375   .     S
N2931  Co2974  1.980   .     S
N2931  C2933   1.327   .     S
N2932  C2934   1.335   .     S
N2932  Co2771  1.976   1_655 S
N2932  N3222   1.349   .     S
C2933  C2982   1.379   .     S
C2934  C3253   1.374   .     S
C2935  C3256   1.372   .     S
C2935  C2936   1.372   .     S
C2936  C3255   1.375   .     S
N2937  Co2975  1.980   .     S
N2937  C2939   1.327   .     S
N2938  C2940   1.335   .     S
N2938  N2758   1.349   1_655 S
C2939  C2986   1.379   .     S
C2940  C2781   1.374   1_655 S
C2941  C2784   1.372   1_655 S
C2941  C2942   1.372   .     S
C2942  C2783   1.375   1_655 S
N2943  Co2976  1.980   .     S
N2943  C2945   1.327   .     S
N2943  N1675   1.357   1_655 S
N2944  C2946   1.335   .     S
N2944  Co3246  1.976   .     S
N2944  N3988   1.349   .     S
C2945  C2786   1.379   1_655 S
C2946  C4077   1.374   .     S
C2947  C4080   1.372   .     S
C2947  C2948   1.372   .     S
C2948  C4079   1.375   .     S
N2949  Co2975  1.980   .     S
N2949  C2951   1.327   .     S
N2949  N3203   1.357   .     S
N2950  C2952   1.335   .     S
N2950  Co2770  1.976   1_655 S
C2951  C3254   1.379   .     S
C2952  C2981   1.374   .     S
C2953  C2984   1.372   .     S
C2953  C2954   1.372   .     S
C2954  C2983   1.375   .     S
N2955  Co2976  1.980   .     S
N2955  C2957   1.327   .     S
N2956  C2958   1.335   .     S
N2956  N3198   1.349   .     S
C2957  C2978   1.379   .     S
C2958  C3249   1.374   .     S
C2959  C3252   1.372   .     S
C2959  C2960   1.372   .     S
C2960  C3251   1.375   .     S
N2961  Co2973  1.980   .     S
N2961  C2963   1.327   .     S
N2961  N2733   1.357   1_655 S
N2962  C2964   1.335   .     S
C2963  C2782   1.379   1_655 S
C2964  C2985   1.374   .     S
C2965  C2988   1.372   .     S
C2965  C2966   1.372   .     S
C2966  C2987   1.375   .     S
N2967  Co2974  1.980   .     S
N2967  C2969   1.327   .     S
N2967  N3963   1.357   .     S
N2968  C2970   1.335   .     S
N2968  Co3248  1.976   .     S
N2968  N1652   1.349   1_655 S
C2969  C4078   1.379   .     S
C2970  C2785   1.374   1_655 S
C2971  C2788   1.372   1_655 S
C2971  C2972   1.372   .     S
C2972  C2787   1.375   1_655 S
Co2973 N3210   1.976   .     S
Co2973 N2752   1.976   1_655 S
Co2975 N3234   1.976   .     S
Co2976 N2722   1.976   1_655 S
C2977  C2980   1.490   .     S
C2978  C2979   1.481   .     S
C2981  C2984   1.490   .     S
C2982  C2983   1.481   .     S
C2985  C2988   1.490   .     S
C2986  C2987   1.481   .     S
C2989  C2992   1.490   .     S
C2990  C2991   1.481   .     S
N2993  Co3041  1.980   .     S
N2993  C2995   1.327   .     S
N2993  N2207   1.357   1_565 S
N2994  C2996   1.335   .     S
N2994  Co3248  1.976   1_455 S
C2995  C2230   1.379   1_565 S
C2996  C3045   1.374   .     S
C2997  C3048   1.372   .     S
C2997  C2998   1.372   .     S
C2998  C3047   1.375   .     S
N2999  Co3042  1.980   .     S
N2999  C3001   1.327   .     S
N3000  C3002   1.335   .     S
N3000  Co3111  1.976   .     S
N3000  N2202   1.349   1_565 S
C3001  C3050   1.379   .     S
C3002  C2233   1.374   1_565 S
C3003  C2236   1.372   1_565 S
C3003  C3004   1.372   .     S
C3004  C2235   1.375   1_565 S
N3005  Co3043  1.980   .     S
N3005  C3007   1.327   .     S
N3005  N3233   1.357   1_455 S
N3006  C3008   1.335   .     S
N3006  N3098   1.349   .     S
C3007  C3054   1.379   .     S
C3008  C3121   1.374   .     S
C3009  C3124   1.372   .     S
C3009  C3010   1.372   .     S
C3010  C3123   1.375   .     S
N3011  Co3044  1.980   .     S
N3011  C3013   1.327   .     S
N3012  C3014   1.335   .     S
N3012  Co2226  1.976   1_565 S
N3012  N4328   1.349   1_455 S
C3013  C3126   1.379   .     S
C3014  C4145   1.374   .     S
C3015  C4148   1.372   .     S
C3015  C3016   1.372   .     S
C3016  C4147   1.375   .     S
N3017  Co3043  1.980   .     S
N3017  C3019   1.327   .     S
N3017  N2183   1.357   1_565 S
N3018  C3020   1.335   .     S
N3018  Co3110  1.976   .     S
C3019  C2234   1.379   1_565 S
C3020  C3049   1.374   .     S
C3021  C3052   1.372   .     S
C3021  C3022   1.372   .     S
C3022  C3051   1.375   .     S
N3023  Co3044  1.980   .     S
N3023  C3025   1.327   .     S
N3024  C3026   1.335   .     S
N3024  Co3245  1.976   1_455 S
N3024  N2178   1.349   1_565 S
C3025  C3046   1.379   .     S
C3026  C2229   1.374   1_565 S
C3027  C2232   1.372   1_565 S
C3027  C3028   1.372   .     S
C3028  C2231   1.375   1_565 S
N3029  Co3041  1.980   .     S
N3029  C3031   1.327   .     S
N3029  N3073   1.357   .     S
N3030  C3032   1.335   .     S
N3030  N3210   1.349   1_455 S
C3031  C3122   1.379   .     S
C3032  C3053   1.374   .     S
C3033  C3056   1.372   .     S
C3033  C3034   1.372   .     S
C3034  C3055   1.375   .     S
N3035  Co3042  1.980   .     S
N3035  C3037   1.327   .     S
N3035  N4303   1.357   1_455 S
N3036  C3038   1.335   .     S
N3036  Co2228  1.976   1_565 S
C3037  C4146   1.379   .     S
C3038  C3125   1.374   .     S
C3039  C3128   1.372   .     S
C3039  C3040   1.372   .     S
C3040  C3127   1.375   .     S
Co3041 N2190   1.976   1_565 S
Co3041 N3092   1.976   .     S
Co3042 N3222   1.976   1_455 S
Co3043 N3204   1.976   1_455 S
Co3043 N2214   1.976   1_565 S
Co3044 N3062   1.976   .     S
C3045  C3048   1.490   .     S
C3046  C3047   1.481   .     S
C3049  C3052   1.490   .     S
C3050  C3051   1.481   .     S
C3053  C3212   1.374   1_455 S
C3053  C3056   1.490   .     S
C3054  C3235   1.379   1_455 S
C3054  C3055   1.481   .     S
C3055  C3214   1.375   1_455 S
C3056  C3213   1.372   1_455 S
C3057  C3242   1.374   1_455 S
C3057  C3060   1.490   .     S
C3058  C3217   1.379   1_455 S
C3058  C3059   1.481   .     S
C3059  C3244   1.375   1_455 S
C3060  C3243   1.372   1_455 S
N3061  Co3109  1.980   .     S
N3061  C3063   1.327   .     S
N3061  N2275   1.357   1_565 S
N3062  C3064   1.335   .     S
C3063  C2298   1.379   1_565 S
C3064  C3113   1.374   .     S
C3065  C3116   1.372   .     S
C3065  C3066   1.372   .     S
C3066  C3115   1.375   .     S
N3067  Co3110  1.980   .     S
N3067  C3069   1.327   .     S
N3068  C3070   1.335   .     S
N3068  Co3179  1.976   .     S
N3068  N2270   1.349   1_565 S
C3069  C3118   1.379   .     S
C3070  C2301   1.374   1_565 S
C3071  C2304   1.372   1_565 S
C3071  C3072   1.372   .     S
C3072  C2303   1.375   1_565 S
N3073  Co3111  1.980   .     S
N3073  C3075   1.327   .     S
N3074  C3076   1.335   .     S
N3074  N3166   1.349   .     S
C3075  C3122   1.379   .     S
C3076  C3189   1.374   .     S
C3077  C3192   1.372   .     S
C3077  C3078   1.372   .     S
C3078  C3191   1.375   .     S
N3079  Co3112  1.980   .     S
N3079  C3081   1.327   .     S
N3080  C3082   1.335   .     S
N3080  Co2294  1.976   1_565 S
N3080  N4124   1.349   .     S
C3081  C3194   1.379   .     S
C3082  C4213   1.374   .     S
C3083  C4216   1.372   .     S
C3083  C3084   1.372   .     S
C3084  C4215   1.375   .     S
N3085  Co3111  1.980   .     S
N3085  C3087   1.327   .     S
N3085  N2251   1.357   1_565 S
N3086  C3088   1.335   .     S
N3086  Co3178  1.976   .     S
C3087  C2302   1.379   1_565 S
C3088  C3117   1.374   .     S
C3089  C3120   1.372   .     S
C3089  C3090   1.372   .     S
C3090  C3119   1.375   .     S
N3091  Co3112  1.980   .     S
N3091  C3093   1.327   .     S
N3092  C3094   1.335   .     S
N3092  N2246   1.349   1_565 S
C3093  C3114   1.379   .     S
C3094  C2297   1.374   1_565 S
C3095  C2300   1.372   1_565 S
C3095  C3096   1.372   .     S
C3096  C2299   1.375   1_565 S
N3097  Co3109  1.980   .     S
N3097  C3099   1.327   .     S
N3097  N3141   1.357   .     S
N3098  C3100   1.335   .     S
C3099  C3190   1.379   .     S
C3100  C3121   1.374   .     S
C3101  C3124   1.372   .     S
C3101  C3102   1.372   .     S
C3102  C3123   1.375   .     S
N3103  Co3110  1.980   .     S
N3103  C3105   1.327   .     S
N3103  N4099   1.357   .     S
N3104  C3106   1.335   .     S
N3104  Co2296  1.976   1_565 S
C3105  C4214   1.379   .     S
C3106  C3193   1.374   .     S
C3107  C3196   1.372   .     S
C3107  C3108   1.372   .     S
C3108  C3195   1.375   .     S
Co3109 N2258   1.976   1_565 S
Co3109 N3160   1.976   .     S
Co3111 N2282   1.976   1_565 S
Co3112 N3130   1.976   .     S
C3113  C3116   1.490   .     S
C3114  C3115   1.481   .     S
C3117  C3120   1.490   .     S
C3118  C3119   1.481   .     S
C3121  C3124   1.490   .     S
C3122  C3123   1.481   .     S
C3125  C3128   1.490   .     S
C3126  C3127   1.481   .     S
N3129  Co3177  1.980   .     S
N3129  C3131   1.327   .     S
N3129  N2343   1.357   1_565 S
N3130  C3132   1.335   .     S
C3131  C2366   1.379   1_565 S
C3132  C3181   1.374   .     S
C3133  C3184   1.372   .     S
C3133  C3134   1.372   .     S
C3134  C3183   1.375   .     S
N3135  Co3178  1.980   .     S
N3135  C3137   1.327   .     S
N3136  C3138   1.335   .     S
N3136  Co3247  1.976   .     S
N3136  N2338   1.349   1_565 S
C3137  C3186   1.379   .     S
C3138  C2369   1.374   1_565 S
C3139  C2372   1.372   1_565 S
C3139  C3140   1.372   .     S
C3140  C2371   1.375   1_565 S
N3141  Co3179  1.980   .     S
N3141  C3143   1.327   .     S
N3142  C3144   1.335   .     S
N3142  N3234   1.349   .     S
C3143  C3190   1.379   .     S
C3144  C3257   1.374   .     S
C3145  C3260   1.372   .     S
C3145  C3146   1.372   .     S
C3146  C3259   1.375   .     S
N3147  Co3180  1.980   .     S
N3147  C3149   1.327   .     S
N3148  C3150   1.335   .     S
N3148  Co2362  1.976   1_565 S
N3148  N4192   1.349   .     S
C3149  C3262   1.379   .     S
C3150  C4281   1.374   .     S
C3151  C4284   1.372   .     S
C3151  C3152   1.372   .     S
C3152  C4283   1.375   .     S
N3153  Co3179  1.980   .     S
N3153  C3155   1.327   .     S
N3153  N2319   1.357   1_565 S
N3154  C3156   1.335   .     S
N3154  Co3246  1.976   .     S
C3155  C2370   1.379   1_565 S
C3156  C3185   1.374   .     S
C3157  C3188   1.372   .     S
C3157  C3158   1.372   .     S
C3158  C3187   1.375   .     S
N3159  Co3180  1.980   .     S
N3159  C3161   1.327   .     S
N3160  C3162   1.335   .     S
N3160  N2314   1.349   1_565 S
C3161  C3182   1.379   .     S
C3162  C2365   1.374   1_565 S
C3163  C2368   1.372   1_565 S
C3163  C3164   1.372   .     S
C3164  C2367   1.375   1_565 S
N3165  Co3177  1.980   .     S
N3165  C3167   1.327   .     S
N3165  N3209   1.357   .     S
N3166  C3168   1.335   .     S
C3167  C3258   1.379   .     S
C3168  C3189   1.374   .     S
C3169  C3192   1.372   .     S
C3169  C3170   1.372   .     S
C3170  C3191   1.375   .     S
N3171  Co3178  1.980   .     S
N3171  C3173   1.327   .     S
N3171  N4167   1.357   .     S
N3172  C3174   1.335   .     S
N3172  Co2364  1.976   1_565 S
C3173  C4282   1.379   .     S
C3174  C3261   1.374   .     S
C3175  C3264   1.372   .     S
C3175  C3176   1.372   .     S
C3176  C3263   1.375   .     S
Co3177 N2326   1.976   1_565 S
Co3177 N3228   1.976   .     S
Co3179 N2350   1.976   1_565 S
Co3180 N3198   1.976   .     S
C3181  C3184   1.490   .     S
C3182  C3183   1.481   .     S
C3185  C3188   1.490   .     S
C3186  C3187   1.481   .     S
C3189  C3192   1.490   .     S
C3190  C3191   1.481   .     S
C3193  C3196   1.490   .     S
C3194  C3195   1.481   .     S
N3197  Co3245  1.980   .     S
N3197  C3199   1.327   .     S
N3197  N2411   1.357   1_565 S
N3198  C3200   1.335   .     S
C3199  C2434   1.379   1_565 S
C3200  C3249   1.374   .     S
C3201  C3252   1.372   .     S
C3201  C3202   1.372   .     S
C3202  C3251   1.375   .     S
N3203  Co3246  1.980   .     S
N3203  C3205   1.327   .     S
N3204  C3206   1.335   .     S
N3204  Co3043  1.976   1_655 S
N3204  N2406   1.349   1_565 S
C3205  C3254   1.379   .     S
C3206  C2437   1.374   1_565 S
C3207  C2440   1.372   1_565 S
C3207  C3208   1.372   .     S
C3208  C2439   1.375   1_565 S
N3209  Co3247  1.980   .     S
N3209  C3211   1.327   .     S
N3210  C3212   1.335   .     S
N3210  N3030   1.349   1_655 S
C3211  C3258   1.379   .     S
C3212  C3053   1.374   1_655 S
C3213  C3056   1.372   1_655 S
C3213  C3214   1.372   .     S
C3214  C3055   1.375   1_655 S
N3215  Co3248  1.980   .     S
N3215  C3217   1.327   .     S
N3215  N1947   1.357   1_655 S
N3216  C3218   1.335   .     S
N3216  Co2430  1.976   1_565 S
N3216  N4260   1.349   .     S
C3217  C3058   1.379   1_655 S
C3218  C4349   1.374   .     S
C3219  C4352   1.372   .     S
C3219  C3220   1.372   .     S
C3220  C4351   1.375   .     S
N3221  Co3247  1.980   .     S
N3221  C3223   1.327   .     S
N3221  N2387   1.357   1_565 S
N3222  C3224   1.335   .     S
N3222  Co3042  1.976   1_655 S
C3223  C2438   1.379   1_565 S
C3224  C3253   1.374   .     S
C3225  C3256   1.372   .     S
C3225  C3226   1.372   .     S
C3226  C3255   1.375   .     S
N3227  Co3248  1.980   .     S
N3227  C3229   1.327   .     S
N3228  C3230   1.335   .     S
N3228  N2382   1.349   1_565 S
C3229  C3250   1.379   .     S
C3230  C2433   1.374   1_565 S
C3231  C2436   1.372   1_565 S
C3231  C3232   1.372   .     S
C3232  C2435   1.375   1_565 S
N3233  Co3245  1.980   .     S
N3233  C3235   1.327   .     S
N3233  N3005   1.357   1_655 S
N3234  C3236   1.335   .     S
C3235  C3054   1.379   1_655 S
C3236  C3257   1.374   .     S
C3237  C3260   1.372   .     S
C3237  C3238   1.372   .     S
C3238  C3259   1.375   .     S
N3239  Co3246  1.980   .     S
N3239  C3241   1.327   .     S
N3239  N4235   1.357   .     S
N3240  C3242   1.335   .     S
N3240  Co2432  1.976   1_565 S
N3240  N1924   1.349   1_655 S
C3241  C4350   1.379   .     S
C3242  C3057   1.374   1_655 S
C3243  C3060   1.372   1_655 S
C3243  C3244   1.372   .     S
C3244  C3059   1.375   1_655 S
Co3245 N2394   1.976   1_565 S
Co3245 N3024   1.976   1_655 S
Co3247 N2418   1.976   1_565 S
Co3248 N2994   1.976   1_655 S
C3249  C3252   1.490   .     S
C3250  C3251   1.481   .     S
C3253  C3256   1.490   .     S
C3254  C3255   1.481   .     S
C3257  C3260   1.490   .     S
C3258  C3259   1.481   .     S
C3261  C3264   1.490   .     S
C3262  C3263   1.481   .     S
N3265  Co3313  1.980   .     S
N3265  C3267   1.327   .     S
N3265  N3567   1.357   .     S
N3266  C3268   1.335   .     S
N3266  Co3520  1.976   1_455 S
N3266  N4112   1.349   1_545 S
C3267  C3590   1.379   .     S
C3268  C3317   1.374   .     S
C3269  C3320   1.372   .     S
C3269  C3270   1.372   .     S
C3270  C3319   1.375   .     S
N3271  Co3314  1.980   .     S
N3271  C3273   1.327   .     S
N3271  N4105   1.357   1_545 S
N3272  C3274   1.335   .     S
N3272  Co3383  1.976   .     S
N3272  N3562   1.349   .     S
C3273  C3322   1.379   .     S
C3274  C3593   1.374   .     S
C3275  C3596   1.372   .     S
C3275  C3276   1.372   .     S
C3276  C3595   1.375   .     S
N3277  Co3315  1.980   .     S
N3277  C3279   1.327   .     S
N3277  N3505   1.357   1_455 S
N3278  C3280   1.335   .     S
N3278  Co4129  1.976   1_545 S
N3278  N3370   1.349   .     S
C3279  C3326   1.379   .     S
C3280  C3393   1.374   .     S
C3281  C3396   1.372   .     S
C3281  C3282   1.372   .     S
C3282  C3395   1.375   .     S
N3283  Co3316  1.980   .     S
N3283  C3285   1.327   .     S
N3284  C3286   1.335   .     S
N3284  Co3586  1.976   .     S
N3284  N248    1.349   1_456 S
C3285  C3398   1.379   .     S
C3286  C65     1.374   1_556 S
C3287  C68     1.372   1_556 S
C3287  C3288   1.372   .     S
C3288  C67     1.375   1_556 S
N3289  Co3315  1.980   .     S
N3289  C3291   1.327   .     S
N3289  N3543   1.357   .     S
N3290  C3292   1.335   .     S
N3290  Co3382  1.976   .     S
N3290  N4088   1.349   1_545 S
C3291  C3594   1.379   .     S
C3292  C3321   1.374   .     S
C3293  C3324   1.372   .     S
C3293  C3294   1.372   .     S
C3294  C3323   1.375   .     S
N3295  Co3316  1.980   .     S
N3295  C3297   1.327   .     S
N3295  N4081   1.357   1_545 S
N3296  C3298   1.335   .     S
N3296  Co3517  1.976   1_455 S
N3296  N3538   1.349   .     S
C3297  C3318   1.379   .     S
C3298  C3589   1.374   .     S
C3299  C3592   1.372   .     S
C3299  C3300   1.372   .     S
C3300  C3591   1.375   .     S
N3301  Co3313  1.980   .     S
N3301  C3303   1.327   .     S
N3301  N3345   1.357   .     S
N3302  C3304   1.335   .     S
N3302  Co4131  1.976   1_545 S
N3302  N3482   1.349   1_455 S
C3303  C3394   1.379   .     S
C3304  C3325   1.374   .     S
C3305  C3328   1.372   .     S
C3305  C3306   1.372   .     S
C3306  C3327   1.375   .     S
N3307  Co3314  1.980   .     S
N3307  C3309   1.327   .     S
N3307  N223    1.357   1_456 S
N3308  C3310   1.335   .     S
N3308  Co3588  1.976   .     S
C3309  C66     1.379   1_556 S
C3310  C3397   1.374   .     S
C3311  C3400   1.372   .     S
C3311  C3312   1.372   .     S
C3312  C3399   1.375   .     S
Co3313 N3550   1.976   .     S
Co3313 N3364   1.976   .     S
Co3314 N4100   1.976   1_545 S
Co3314 N3494   1.976   1_455 S
Co3315 N3476   1.976   1_455 S
Co3315 N3574   1.976   .     S
Co3316 N3334   1.976   .     S
Co3316 N4124   1.976   1_545 S
C3317  C4114   1.374   1_545 S
C3317  C3320   1.490   .     S
C3318  C4083   1.379   1_545 S
C3318  C3319   1.481   .     S
C3319  C4116   1.375   1_545 S
C3320  C4115   1.372   1_545 S
C3321  C4090   1.374   1_545 S
C3321  C3324   1.490   .     S
C3322  C4107   1.379   1_545 S
C3322  C3323   1.481   .     S
C3323  C4092   1.375   1_545 S
C3324  C4091   1.372   1_545 S
C3325  C3484   1.374   1_455 S
C3325  C3328   1.490   .     S
C3326  C3507   1.379   1_455 S
C3326  C3327   1.481   .     S
C3327  C3486   1.375   1_455 S
C3328  C3485   1.372   1_455 S
C3329  C3514   1.374   1_455 S
C3329  C3332   1.490   .     S
C3330  C3489   1.379   1_455 S
C3330  C3331   1.481   .     S
C3331  C3516   1.375   1_455 S
C3332  C3515   1.372   1_455 S
N3333  Co3381  1.980   .     S
N3333  C3335   1.327   .     S
N3333  N3635   1.357   .     S
N3334  C3336   1.335   .     S
N3334  N4180   1.349   1_545 S
C3335  C3658   1.379   .     S
C3336  C3385   1.374   .     S
C3337  C3388   1.372   .     S
C3337  C3338   1.372   .     S
C3338  C3387   1.375   .     S
N3339  Co3382  1.980   .     S
N3339  C3341   1.327   .     S
N3339  N4173   1.357   1_545 S
N3340  C3342   1.335   .     S
N3340  Co3451  1.976   .     S
N3340  N3630   1.349   .     S
C3341  C3390   1.379   .     S
C3342  C3661   1.374   .     S
C3343  C3664   1.372   .     S
C3343  C3344   1.372   .     S
C3344  C3663   1.375   .     S
N3345  Co3383  1.980   .     S
N3345  C3347   1.327   .     S
N3346  C3348   1.335   .     S
N3346  Co4197  1.976   1_545 S
N3346  N3438   1.349   .     S
C3347  C3394   1.379   .     S
C3348  C3461   1.374   .     S
C3349  C3464   1.372   .     S
C3349  C3350   1.372   .     S
C3350  C3463   1.375   .     S
N3351  Co3384  1.980   .     S
N3351  C3353   1.327   .     S
N3352  C3354   1.335   .     S
N3352  Co3654  1.976   .     S
N3352  N44     1.349   1_556 S
C3353  C3466   1.379   .     S
C3354  C133    1.374   1_556 S
C3355  C136    1.372   1_556 S
C3355  C3356   1.372   .     S
C3356  C135    1.375   1_556 S
N3357  Co3383  1.980   .     S
N3357  C3359   1.327   .     S
N3357  N3611   1.357   .     S
N3358  C3360   1.335   .     S
N3358  Co3450  1.976   .     S
N3358  N4156   1.349   1_545 S
C3359  C3662   1.379   .     S
C3360  C3389   1.374   .     S
C3361  C3392   1.372   .     S
C3361  C3362   1.372   .     S
C3362  C3391   1.375   .     S
N3363  Co3384  1.980   .     S
N3363  C3365   1.327   .     S
N3363  N4149   1.357   1_545 S
N3364  C3366   1.335   .     S
N3364  N3606   1.349   .     S
C3365  C3386   1.379   .     S
C3366  C3657   1.374   .     S
C3367  C3660   1.372   .     S
C3367  C3368   1.372   .     S
C3368  C3659   1.375   .     S
N3369  Co3381  1.980   .     S
N3369  C3371   1.327   .     S
N3369  N3413   1.357   .     S
N3370  C3372   1.335   .     S
N3370  Co4199  1.976   1_545 S
C3371  C3462   1.379   .     S
C3372  C3393   1.374   .     S
C3373  C3396   1.372   .     S
C3373  C3374   1.372   .     S
C3374  C3395   1.375   .     S
N3375  Co3382  1.980   .     S
N3375  C3377   1.327   .     S
N3375  N19     1.357   1_556 S
N3376  C3378   1.335   .     S
N3376  Co3656  1.976   .     S
C3377  C134    1.379   1_556 S
C3378  C3465   1.374   .     S
C3379  C3468   1.372   .     S
C3379  C3380   1.372   .     S
C3380  C3467   1.375   .     S
Co3381 N3618   1.976   .     S
Co3381 N3432   1.976   .     S
Co3382 N4168   1.976   1_545 S
Co3383 N3642   1.976   .     S
Co3384 N3402   1.976   .     S
Co3384 N4192   1.976   1_545 S
C3385  C4182   1.374   1_545 S
C3385  C3388   1.490   .     S
C3386  C4151   1.379   1_545 S
C3386  C3387   1.481   .     S
C3387  C4184   1.375   1_545 S
C3388  C4183   1.372   1_545 S
C3389  C4158   1.374   1_545 S
C3389  C3392   1.490   .     S
C3390  C4175   1.379   1_545 S
C3390  C3391   1.481   .     S
C3391  C4160   1.375   1_545 S
C3392  C4159   1.372   1_545 S
C3393  C3396   1.490   .     S
C3394  C3395   1.481   .     S
C3397  C3400   1.490   .     S
C3398  C3399   1.481   .     S
N3401  Co3449  1.980   .     S
N3401  C3403   1.327   .     S
N3401  N3703   1.357   .     S
N3402  C3404   1.335   .     S
N3402  N4248   1.349   1_545 S
C3403  C3726   1.379   .     S
C3404  C3453   1.374   .     S
C3405  C3456   1.372   .     S
C3405  C3406   1.372   .     S
C3406  C3455   1.375   .     S
N3407  Co3450  1.980   .     S
N3407  C3409   1.327   .     S
N3407  N4241   1.357   1_545 S
N3408  C3410   1.335   .     S
N3408  Co3519  1.976   .     S
N3408  N3698   1.349   .     S
C3409  C3458   1.379   .     S
C3410  C3729   1.374   .     S
C3411  C3732   1.372   .     S
C3411  C3412   1.372   .     S
C3412  C3731   1.375   .     S
N3413  Co3451  1.980   .     S
N3413  C3415   1.327   .     S
N3414  C3416   1.335   .     S
N3414  Co4265  1.976   1_545 S
N3414  N3506   1.349   .     S
C3415  C3462   1.379   .     S
C3416  C3529   1.374   .     S
C3417  C3532   1.372   .     S
C3417  C3418   1.372   .     S
C3418  C3531   1.375   .     S
N3419  Co3452  1.980   .     S
N3419  C3421   1.327   .     S
N3420  C3422   1.335   .     S
N3420  Co3722  1.976   .     S
N3420  N112    1.349   1_556 S
C3421  C3534   1.379   .     S
C3422  C201    1.374   1_556 S
C3423  C204    1.372   1_556 S
C3423  C3424   1.372   .     S
C3424  C203    1.375   1_556 S
N3425  Co3451  1.980   .     S
N3425  C3427   1.327   .     S
N3425  N3679   1.357   .     S
N3426  C3428   1.335   .     S
N3426  Co3518  1.976   .     S
N3426  N4224   1.349   1_545 S
C3427  C3730   1.379   .     S
C3428  C3457   1.374   .     S
C3429  C3460   1.372   .     S
C3429  C3430   1.372   .     S
C3430  C3459   1.375   .     S
N3431  Co3452  1.980   .     S
N3431  C3433   1.327   .     S
N3431  N4217   1.357   1_545 S
N3432  C3434   1.335   .     S
N3432  N3674   1.349   .     S
C3433  C3454   1.379   .     S
C3434  C3725   1.374   .     S
C3435  C3728   1.372   .     S
C3435  C3436   1.372   .     S
C3436  C3727   1.375   .     S
N3437  Co3449  1.980   .     S
N3437  C3439   1.327   .     S
N3437  N3481   1.357   .     S
N3438  C3440   1.335   .     S
N3438  Co4267  1.976   1_545 S
C3439  C3530   1.379   .     S
C3440  C3461   1.374   .     S
C3441  C3464   1.372   .     S
C3441  C3442   1.372   .     S
C3442  C3463   1.375   .     S
N3443  Co3450  1.980   .     S
N3443  C3445   1.327   .     S
N3443  N87     1.357   1_556 S
N3444  C3446   1.335   .     S
N3444  Co3724  1.976   .     S
C3445  C202    1.379   1_556 S
C3446  C3533   1.374   .     S
C3447  C3536   1.372   .     S
C3447  C3448   1.372   .     S
C3448  C3535   1.375   .     S
Co3449 N3686   1.976   .     S
Co3449 N3500   1.976   .     S
Co3450 N4236   1.976   1_545 S
Co3451 N3710   1.976   .     S
Co3452 N3470   1.976   .     S
Co3452 N4260   1.976   1_545 S
C3453  C4250   1.374   1_545 S
C3453  C3456   1.490   .     S
C3454  C4219   1.379   1_545 S
C3454  C3455   1.481   .     S
C3455  C4252   1.375   1_545 S
C3456  C4251   1.372   1_545 S
C3457  C4226   1.374   1_545 S
C3457  C3460   1.490   .     S
C3458  C4243   1.379   1_545 S
C3458  C3459   1.481   .     S
C3459  C4228   1.375   1_545 S
C3460  C4227   1.372   1_545 S
C3461  C3464   1.490   .     S
C3462  C3463   1.481   .     S
C3465  C3468   1.490   .     S
C3466  C3467   1.481   .     S
N3469  Co3517  1.980   .     S
N3469  C3471   1.327   .     S
N3469  N3771   1.357   .     S
N3470  C3472   1.335   .     S
N3470  N4316   1.349   1_545 S
C3471  C3794   1.379   .     S
C3472  C3521   1.374   .     S
C3473  C3524   1.372   .     S
C3473  C3474   1.372   .     S
C3474  C3523   1.375   .     S
N3475  Co3518  1.980   .     S
N3475  C3477   1.327   .     S
N3475  N4309   1.357   1_545 S
N3476  C3478   1.335   .     S
N3476  Co3315  1.976   1_655 S
N3476  N3766   1.349   .     S
C3477  C3526   1.379   .     S
C3478  C3797   1.374   .     S
C3479  C3800   1.372   .     S
C3479  C3480   1.372   .     S
C3480  C3799   1.375   .     S
N3481  Co3519  1.980   .     S
N3481  C3483   1.327   .     S
N3482  C3484   1.335   .     S
N3482  Co4333  1.976   1_545 S
N3482  N3302   1.349   1_655 S
C3483  C3530   1.379   .     S
C3484  C3325   1.374   1_655 S
C3485  C3328   1.372   1_655 S
C3485  C3486   1.372   .     S
C3486  C3327   1.375   1_655 S
N3487  Co3520  1.980   .     S
N3487  C3489   1.327   .     S
N3487  N2219   1.357   1_655 S
N3488  C3490   1.335   .     S
N3488  Co3790  1.976   .     S
N3488  N180    1.349   1_556 S
C3489  C3330   1.379   1_655 S
C3490  C269    1.374   1_556 S
C3491  C272    1.372   1_556 S
C3491  C3492   1.372   .     S
C3492  C271    1.375   1_556 S
N3493  Co3519  1.980   .     S
N3493  C3495   1.327   .     S
N3493  N3747   1.357   .     S
N3494  C3496   1.335   .     S
N3494  Co3314  1.976   1_655 S
N3494  N4292   1.349   1_545 S
C3495  C3798   1.379   .     S
C3496  C3525   1.374   .     S
C3497  C3528   1.372   .     S
C3497  C3498   1.372   .     S
C3498  C3527   1.375   .     S
N3499  Co3520  1.980   .     S
N3499  C3501   1.327   .     S
N3499  N4285   1.357   1_545 S
N3500  C3502   1.335   .     S
N3500  N3742   1.349   .     S
C3501  C3522   1.379   .     S
C3502  C3793   1.374   .     S
C3503  C3796   1.372   .     S
C3503  C3504   1.372   .     S
C3504  C3795   1.375   .     S
N3505  Co3517  1.980   .     S
N3505  C3507   1.327   .     S
N3505  N3277   1.357   1_655 S
N3506  C3508   1.335   .     S
N3506  Co4335  1.976   1_545 S
C3507  C3326   1.379   1_655 S
C3508  C3529   1.374   .     S
C3509  C3532   1.372   .     S
C3509  C3510   1.372   .     S
C3510  C3531   1.375   .     S
N3511  Co3518  1.980   .     S
N3511  C3513   1.327   .     S
N3511  N155    1.357   1_556 S
N3512  C3514   1.335   .     S
N3512  Co3792  1.976   .     S
N3512  N2196   1.349   1_655 S
C3513  C270    1.379   1_556 S
C3514  C3329   1.374   1_655 S
C3515  C3332   1.372   1_655 S
C3515  C3516   1.372   .     S
C3516  C3331   1.375   1_655 S
Co3517 N3754   1.976   .     S
Co3517 N3296   1.976   1_655 S
Co3518 N4304   1.976   1_545 S
Co3519 N3778   1.976   .     S
Co3520 N3266   1.976   1_655 S
Co3520 N4328   1.976   1_545 S
C3521  C4318   1.374   1_545 S
C3521  C3524   1.490   .     S
C3522  C4287   1.379   1_545 S
C3522  C3523   1.481   .     S
C3523  C4320   1.375   1_545 S
C3524  C4319   1.372   1_545 S
C3525  C4294   1.374   1_545 S
C3525  C3528   1.490   .     S
C3526  C4311   1.379   1_545 S
C3526  C3527   1.481   .     S
C3527  C4296   1.375   1_545 S
C3528  C4295   1.372   1_545 S
C3529  C3532   1.490   .     S
C3530  C3531   1.481   .     S
C3533  C3536   1.490   .     S
C3534  C3535   1.481   .     S
N3537  Co3585  1.980   .     S
N3537  C3539   1.327   .     S
N3537  N3839   1.357   .     S
N3538  C3540   1.335   .     S
N3538  Co3792  1.976   1_455 S
C3539  C3862   1.379   .     S
C3540  C3589   1.374   .     S
C3541  C3592   1.372   .     S
C3541  C3542   1.372   .     S
C3542  C3591   1.375   .     S
N3543  Co3586  1.980   .     S
N3543  C3545   1.327   .     S
N3544  C3546   1.335   .     S
N3544  Co3655  1.976   .     S
N3544  N3834   1.349   .     S
C3545  C3594   1.379   .     S
C3546  C3865   1.374   .     S
C3547  C3868   1.372   .     S
C3547  C3548   1.372   .     S
C3548  C3867   1.375   .     S
N3549  Co3587  1.980   .     S
N3549  C3551   1.327   .     S
N3549  N3777   1.357   1_455 S
N3550  C3552   1.335   .     S
N3550  N3642   1.349   .     S
C3551  C3598   1.379   .     S
C3552  C3665   1.374   .     S
C3553  C3668   1.372   .     S
C3553  C3554   1.372   .     S
C3554  C3667   1.375   .     S
N3555  Co3588  1.980   .     S
N3555  C3557   1.327   .     S
N3556  C3558   1.335   .     S
N3556  Co3858  1.976   .     S
N3556  N520    1.349   1_456 S
C3557  C3670   1.379   .     S
C3558  C337    1.374   1_556 S
C3559  C340    1.372   1_556 S
C3559  C3560   1.372   .     S
C3560  C339    1.375   1_556 S
N3561  Co3587  1.980   .     S
N3561  C3563   1.327   .     S
N3561  N3815   1.357   .     S
N3562  C3564   1.335   .     S
N3562  Co3654  1.976   .     S
C3563  C3866   1.379   .     S
C3564  C3593   1.374   .     S
C3565  C3596   1.372   .     S
C3565  C3566   1.372   .     S
C3566  C3595   1.375   .     S
N3567  Co3588  1.980   .     S
N3567  C3569   1.327   .     S
N3568  C3570   1.335   .     S
N3568  Co3789  1.976   1_455 S
N3568  N3810   1.349   .     S
C3569  C3590   1.379   .     S
C3570  C3861   1.374   .     S
C3571  C3864   1.372   .     S
C3571  C3572   1.372   .     S
C3572  C3863   1.375   .     S
N3573  Co3585  1.980   .     S
N3573  C3575   1.327   .     S
N3573  N3617   1.357   .     S
N3574  C3576   1.335   .     S
N3574  N3754   1.349   1_455 S
C3575  C3666   1.379   .     S
C3576  C3597   1.374   .     S
C3577  C3600   1.372   .     S
C3577  C3578   1.372   .     S
C3578  C3599   1.375   .     S
N3579  Co3586  1.980   .     S
N3579  C3581   1.327   .     S
N3579  N495    1.357   1_456 S
N3580  C3582   1.335   .     S
N3580  Co3860  1.976   .     S
C3581  C338    1.379   1_556 S
C3582  C3669   1.374   .     S
C3583  C3672   1.372   .     S
C3583  C3584   1.372   .     S
C3584  C3671   1.375   .     S
Co3585 N3822   1.976   .     S
Co3585 N3636   1.976   .     S
Co3586 N3766   1.976   1_455 S
Co3587 N3748   1.976   1_455 S
Co3587 N3846   1.976   .     S
Co3588 N3606   1.976   .     S
C3589  C3592   1.490   .     S
C3590  C3591   1.481   .     S
C3593  C3596   1.490   .     S
C3594  C3595   1.481   .     S
C3597  C3756   1.374   1_455 S
C3597  C3600   1.490   .     S
C3598  C3779   1.379   1_455 S
C3598  C3599   1.481   .     S
C3599  C3758   1.375   1_455 S
C3600  C3757   1.372   1_455 S
C3601  C3786   1.374   1_455 S
C3601  C3604   1.490   .     S
C3602  C3761   1.379   1_455 S
C3602  C3603   1.481   .     S
C3603  C3788   1.375   1_455 S
C3604  C3787   1.372   1_455 S
N3605  Co3653  1.980   .     S
N3605  C3607   1.327   .     S
N3605  N3907   1.357   .     S
N3606  C3608   1.335   .     S
C3607  C3930   1.379   .     S
C3608  C3657   1.374   .     S
C3609  C3660   1.372   .     S
C3609  C3610   1.372   .     S
C3610  C3659   1.375   .     S
N3611  Co3654  1.980   .     S
N3611  C3613   1.327   .     S
N3612  C3614   1.335   .     S
N3612  Co3723  1.976   .     S
N3612  N3902   1.349   .     S
C3613  C3662   1.379   .     S
C3614  C3933   1.374   .     S
C3615  C3936   1.372   .     S
C3615  C3616   1.372   .     S
C3616  C3935   1.375   .     S
N3617  Co3655  1.980   .     S
N3617  C3619   1.327   .     S
N3618  C3620   1.335   .     S
N3618  N3710   1.349   .     S
C3619  C3666   1.379   .     S
C3620  C3733   1.374   .     S
C3621  C3736   1.372   .     S
C3621  C3622   1.372   .     S
C3622  C3735   1.375   .     S
N3623  Co3656  1.980   .     S
N3623  C3625   1.327   .     S
N3624  C3626   1.335   .     S
N3624  Co3926  1.976   .     S
N3624  N316    1.349   1_556 S
C3625  C3738   1.379   .     S
C3626  C405    1.374   1_556 S
C3627  C408    1.372   1_556 S
C3627  C3628   1.372   .     S
C3628  C407    1.375   1_556 S
N3629  Co3655  1.980   .     S
N3629  C3631   1.327   .     S
N3629  N3883   1.357   .     S
N3630  C3632   1.335   .     S
N3630  Co3722  1.976   .     S
C3631  C3934   1.379   .     S
C3632  C3661   1.374   .     S
C3633  C3664   1.372   .     S
C3633  C3634   1.372   .     S
C3634  C3663   1.375   .     S
N3635  Co3656  1.980   .     S
N3635  C3637   1.327   .     S
N3636  C3638   1.335   .     S
N3636  N3878   1.349   .     S
C3637  C3658   1.379   .     S
C3638  C3929   1.374   .     S
C3639  C3932   1.372   .     S
C3639  C3640   1.372   .     S
C3640  C3931   1.375   .     S
N3641  Co3653  1.980   .     S
N3641  C3643   1.327   .     S
N3641  N3685   1.357   .     S
N3642  C3644   1.335   .     S
C3643  C3734   1.379   .     S
C3644  C3665   1.374   .     S
C3645  C3668   1.372   .     S
C3645  C3646   1.372   .     S
C3646  C3667   1.375   .     S
N3647  Co3654  1.980   .     S
N3647  C3649   1.327   .     S
N3647  N291    1.357   1_556 S
N3648  C3650   1.335   .     S
N3648  Co3928  1.976   .     S
C3649  C406    1.379   1_556 S
C3650  C3737   1.374   .     S
C3651  C3740   1.372   .     S
C3651  C3652   1.372   .     S
C3652  C3739   1.375   .     S
Co3653 N3890   1.976   .     S
Co3653 N3704   1.976   .     S
Co3655 N3914   1.976   .     S
Co3656 N3674   1.976   .     S
C3657  C3660   1.490   .     S
C3658  C3659   1.481   .     S
C3661  C3664   1.490   .     S
C3662  C3663   1.481   .     S
C3665  C3668   1.490   .     S
C3666  C3667   1.481   .     S
C3669  C3672   1.490   .     S
C3670  C3671   1.481   .     S
N3673  Co3721  1.980   .     S
N3673  C3675   1.327   .     S
N3673  N3975   1.357   .     S
N3674  C3676   1.335   .     S
C3675  C3998   1.379   .     S
C3676  C3725   1.374   .     S
C3677  C3728   1.372   .     S
C3677  C3678   1.372   .     S
C3678  C3727   1.375   .     S
N3679  Co3722  1.980   .     S
N3679  C3681   1.327   .     S
N3680  C3682   1.335   .     S
N3680  Co3791  1.976   .     S
N3680  N3970   1.349   .     S
C3681  C3730   1.379   .     S
C3682  C4001   1.374   .     S
C3683  C4004   1.372   .     S
C3683  C3684   1.372   .     S
C3684  C4003   1.375   .     S
N3685  Co3723  1.980   .     S
N3685  C3687   1.327   .     S
N3686  C3688   1.335   .     S
N3686  N3778   1.349   .     S
C3687  C3734   1.379   .     S
C3688  C3801   1.374   .     S
C3689  C3804   1.372   .     S
C3689  C3690   1.372   .     S
C3690  C3803   1.375   .     S
N3691  Co3724  1.980   .     S
N3691  C3693   1.327   .     S
N3692  C3694   1.335   .     S
N3692  Co3994  1.976   .     S
N3692  N384    1.349   1_556 S
C3693  C3806   1.379   .     S
C3694  C473    1.374   1_556 S
C3695  C476    1.372   1_556 S
C3695  C3696   1.372   .     S
C3696  C475    1.375   1_556 S
N3697  Co3723  1.980   .     S
N3697  C3699   1.327   .     S
N3697  N3951   1.357   .     S
N3698  C3700   1.335   .     S
N3698  Co3790  1.976   .     S
C3699  C4002   1.379   .     S
C3700  C3729   1.374   .     S
C3701  C3732   1.372   .     S
C3701  C3702   1.372   .     S
C3702  C3731   1.375   .     S
N3703  Co3724  1.980   .     S
N3703  C3705   1.327   .     S
N3704  C3706   1.335   .     S
N3704  N3946   1.349   .     S
C3705  C3726   1.379   .     S
C3706  C3997   1.374   .     S
C3707  C4000   1.372   .     S
C3707  C3708   1.372   .     S
C3708  C3999   1.375   .     S
N3709  Co3721  1.980   .     S
N3709  C3711   1.327   .     S
N3709  N3753   1.357   .     S
N3710  C3712   1.335   .     S
C3711  C3802   1.379   .     S
C3712  C3733   1.374   .     S
C3713  C3736   1.372   .     S
C3713  C3714   1.372   .     S
C3714  C3735   1.375   .     S
N3715  Co3722  1.980   .     S
N3715  C3717   1.327   .     S
N3715  N359    1.357   1_556 S
N3716  C3718   1.335   .     S
N3716  Co3996  1.976   .     S
C3717  C474    1.379   1_556 S
C3718  C3805   1.374   .     S
C3719  C3808   1.372   .     S
C3719  C3720   1.372   .     S
C3720  C3807   1.375   .     S
Co3721 N3958   1.976   .     S
Co3721 N3772   1.976   .     S
Co3723 N3982   1.976   .     S
Co3724 N3742   1.976   .     S
C3725  C3728   1.490   .     S
C3726  C3727   1.481   .     S
C3729  C3732   1.490   .     S
C3730  C3731   1.481   .     S
C3733  C3736   1.490   .     S
C3734  C3735   1.481   .     S
C3737  C3740   1.490   .     S
C3738  C3739   1.481   .     S
N3741  Co3789  1.980   .     S
N3741  C3743   1.327   .     S
N3741  N4043   1.357   .     S
N3742  C3744   1.335   .     S
C3743  C4066   1.379   .     S
C3744  C3793   1.374   .     S
C3745  C3796   1.372   .     S
C3745  C3746   1.372   .     S
C3746  C3795   1.375   .     S
N3747  Co3790  1.980   .     S
N3747  C3749   1.327   .     S
N3748  C3750   1.335   .     S
N3748  Co3587  1.976   1_655 S
N3748  N4038   1.349   .     S
C3749  C3798   1.379   .     S
C3750  C4069   1.374   .     S
C3751  C4072   1.372   .     S
C3751  C3752   1.372   .     S
C3752  C4071   1.375   .     S
N3753  Co3791  1.980   .     S
N3753  C3755   1.327   .     S
N3754  C3756   1.335   .     S
N3754  N3574   1.349   1_655 S
C3755  C3802   1.379   .     S
C3756  C3597   1.374   1_655 S
C3757  C3600   1.372   1_655 S
C3757  C3758   1.372   .     S
C3758  C3599   1.375   1_655 S
N3759  Co3792  1.980   .     S
N3759  C3761   1.327   .     S
N3759  N2491   1.357   1_655 S
N3760  C3762   1.335   .     S
N3760  Co4062  1.976   .     S
N3760  N452    1.349   1_556 S
C3761  C3602   1.379   1_655 S
C3762  C541    1.374   1_556 S
C3763  C544    1.372   1_556 S
C3763  C3764   1.372   .     S
C3764  C543    1.375   1_556 S
N3765  Co3791  1.980   .     S
N3765  C3767   1.327   .     S
N3765  N4019   1.357   .     S
N3766  C3768   1.335   .     S
N3766  Co3586  1.976   1_655 S
C3767  C4070   1.379   .     S
C3768  C3797   1.374   .     S
C3769  C3800   1.372   .     S
C3769  C3770   1.372   .     S
C3770  C3799   1.375   .     S
N3771  Co3792  1.980   .     S
N3771  C3773   1.327   .     S
N3772  C3774   1.335   .     S
N3772  N4014   1.349   .     S
C3773  C3794   1.379   .     S
C3774  C4065   1.374   .     S
C3775  C4068   1.372   .     S
C3775  C3776   1.372   .     S
C3776  C4067   1.375   .     S
N3777  Co3789  1.980   .     S
N3777  C3779   1.327   .     S
N3777  N3549   1.357   1_655 S
N3778  C3780   1.335   .     S
C3779  C3598   1.379   1_655 S
C3780  C3801   1.374   .     S
C3781  C3804   1.372   .     S
C3781  C3782   1.372   .     S
C3782  C3803   1.375   .     S
N3783  Co3790  1.980   .     S
N3783  C3785   1.327   .     S
N3783  N427    1.357   1_556 S
N3784  C3786   1.335   .     S
N3784  Co4064  1.976   .     S
N3784  N2468   1.349   1_655 S
C3785  C542    1.379   1_556 S
C3786  C3601   1.374   1_655 S
C3787  C3604   1.372   1_655 S
C3787  C3788   1.372   .     S
C3788  C3603   1.375   1_655 S
Co3789 N4026   1.976   .     S
Co3789 N3568   1.976   1_655 S
Co3791 N4050   1.976   .     S
Co3792 N3538   1.976   1_655 S
C3793  C3796   1.490   .     S
C3794  C3795   1.481   .     S
C3797  C3800   1.490   .     S
C3798  C3799   1.481   .     S
C3801  C3804   1.490   .     S
C3802  C3803   1.481   .     S
C3805  C3808   1.490   .     S
C3806  C3807   1.481   .     S
N3809  Co3857  1.980   .     S
N3809  C3811   1.327   .     S
N3809  N4111   1.357   .     S
N3810  C3812   1.335   .     S
N3810  Co4064  1.976   1_455 S
C3811  C4134   1.379   .     S
C3812  C3861   1.374   .     S
C3813  C3864   1.372   .     S
C3813  C3814   1.372   .     S
C3814  C3863   1.375   .     S
N3815  Co3858  1.980   .     S
N3815  C3817   1.327   .     S
N3816  C3818   1.335   .     S
N3816  Co3927  1.976   .     S
N3816  N4106   1.349   .     S
C3817  C3866   1.379   .     S
C3818  C4137   1.374   .     S
C3819  C4140   1.372   .     S
C3819  C3820   1.372   .     S
C3820  C4139   1.375   .     S
N3821  Co3859  1.980   .     S
N3821  C3823   1.327   .     S
N3821  N4049   1.357   1_455 S
N3822  C3824   1.335   .     S
N3822  N3914   1.349   .     S
C3823  C3870   1.379   .     S
C3824  C3937   1.374   .     S
C3825  C3940   1.372   .     S
C3825  C3826   1.372   .     S
C3826  C3939   1.375   .     S
N3827  Co3860  1.980   .     S
N3827  C3829   1.327   .     S
N3828  C3830   1.335   .     S
N3828  Co4130  1.976   .     S
N3828  N792    1.349   1_456 S
C3829  C3942   1.379   .     S
C3830  C609    1.374   1_556 S
C3831  C612    1.372   1_556 S
C3831  C3832   1.372   .     S
C3832  C611    1.375   1_556 S
N3833  Co3859  1.980   .     S
N3833  C3835   1.327   .     S
N3833  N4087   1.357   .     S
N3834  C3836   1.335   .     S
N3834  Co3926  1.976   .     S
C3835  C4138   1.379   .     S
C3836  C3865   1.374   .     S
C3837  C3868   1.372   .     S
C3837  C3838   1.372   .     S
C3838  C3867   1.375   .     S
N3839  Co3860  1.980   .     S
N3839  C3841   1.327   .     S
N3840  C3842   1.335   .     S
N3840  Co4061  1.976   1_455 S
N3840  N4082   1.349   .     S
C3841  C3862   1.379   .     S
C3842  C4133   1.374   .     S
C3843  C4136   1.372   .     S
C3843  C3844   1.372   .     S
C3844  C4135   1.375   .     S
N3845  Co3857  1.980   .     S
N3845  C3847   1.327   .     S
N3845  N3889   1.357   .     S
N3846  C3848   1.335   .     S
N3846  N4026   1.349   1_455 S
C3847  C3938   1.379   .     S
C3848  C3869   1.374   .     S
C3849  C3872   1.372   .     S
C3849  C3850   1.372   .     S
C3850  C3871   1.375   .     S
N3851  Co3858  1.980   .     S
N3851  C3853   1.327   .     S
N3851  N767    1.357   1_456 S
N3852  C3854   1.335   .     S
N3852  Co4132  1.976   .     S
C3853  C610    1.379   1_556 S
C3854  C3941   1.374   .     S
C3855  C3944   1.372   .     S
C3855  C3856   1.372   .     S
C3856  C3943   1.375   .     S
Co3857 N4094   1.976   .     S
Co3857 N3908   1.976   .     S
Co3858 N4038   1.976   1_455 S
Co3859 N4020   1.976   1_455 S
Co3859 N4118   1.976   .     S
Co3860 N3878   1.976   .     S
C3861  C3864   1.490   .     S
C3862  C3863   1.481   .     S
C3865  C3868   1.490   .     S
C3866  C3867   1.481   .     S
C3869  C4028   1.374   1_455 S
C3869  C3872   1.490   .     S
C3870  C4051   1.379   1_455 S
C3870  C3871   1.481   .     S
C3871  C4030   1.375   1_455 S
C3872  C4029   1.372   1_455 S
C3873  C4058   1.374   1_455 S
C3873  C3876   1.490   .     S
C3874  C4033   1.379   1_455 S
C3874  C3875   1.481   .     S
C3875  C4060   1.375   1_455 S
C3876  C4059   1.372   1_455 S
N3877  Co3925  1.980   .     S
N3877  C3879   1.327   .     S
N3877  N4179   1.357   .     S
N3878  C3880   1.335   .     S
C3879  C4202   1.379   .     S
C3880  C3929   1.374   .     S
C3881  C3932   1.372   .     S
C3881  C3882   1.372   .     S
C3882  C3931   1.375   .     S
N3883  Co3926  1.980   .     S
N3883  C3885   1.327   .     S
N3884  C3886   1.335   .     S
N3884  Co3995  1.976   .     S
N3884  N4174   1.349   .     S
C3885  C3934   1.379   .     S
C3886  C4205   1.374   .     S
C3887  C4208   1.372   .     S
C3887  C3888   1.372   .     S
C3888  C4207   1.375   .     S
N3889  Co3927  1.980   .     S
N3889  C3891   1.327   .     S
N3890  C3892   1.335   .     S
N3890  N3982   1.349   .     S
C3891  C3938   1.379   .     S
C3892  C4005   1.374   .     S
C3893  C4008   1.372   .     S
C3893  C3894   1.372   .     S
C3894  C4007   1.375   .     S
N3895  Co3928  1.980   .     S
N3895  C3897   1.327   .     S
N3896  C3898   1.335   .     S
N3896  Co4198  1.976   .     S
N3896  N588    1.349   1_556 S
C3897  C4010   1.379   .     S
C3898  C677    1.374   1_556 S
C3899  C680    1.372   1_556 S
C3899  C3900   1.372   .     S
C3900  C679    1.375   1_556 S
N3901  Co3927  1.980   .     S
N3901  C3903   1.327   .     S
N3901  N4155   1.357   .     S
N3902  C3904   1.335   .     S
N3902  Co3994  1.976   .     S
C3903  C4206   1.379   .     S
C3904  C3933   1.374   .     S
C3905  C3936   1.372   .     S
C3905  C3906   1.372   .     S
C3906  C3935   1.375   .     S
N3907  Co3928  1.980   .     S
N3907  C3909   1.327   .     S
N3908  C3910   1.335   .     S
N3908  N4150   1.349   .     S
C3909  C3930   1.379   .     S
C3910  C4201   1.374   .     S
C3911  C4204   1.372   .     S
C3911  C3912   1.372   .     S
C3912  C4203   1.375   .     S
N3913  Co3925  1.980   .     S
N3913  C3915   1.327   .     S
N3913  N3957   1.357   .     S
N3914  C3916   1.335   .     S
C3915  C4006   1.379   .     S
C3916  C3937   1.374   .     S
C3917  C3940   1.372   .     S
C3917  C3918   1.372   .     S
C3918  C3939   1.375   .     S
N3919  Co3926  1.980   .     S
N3919  C3921   1.327   .     S
N3919  N563    1.357   1_556 S
N3920  C3922   1.335   .     S
N3920  Co4200  1.976   .     S
C3921  C678    1.379   1_556 S
C3922  C4009   1.374   .     S
C3923  C4012   1.372   .     S
C3923  C3924   1.372   .     S
C3924  C4011   1.375   .     S
Co3925 N4162   1.976   .     S
Co3925 N3976   1.976   .     S
Co3927 N4186   1.976   .     S
Co3928 N3946   1.976   .     S
C3929  C3932   1.490   .     S
C3930  C3931   1.481   .     S
C3933  C3936   1.490   .     S
C3934  C3935   1.481   .     S
C3937  C3940   1.490   .     S
C3938  C3939   1.481   .     S
C3941  C3944   1.490   .     S
C3942  C3943   1.481   .     S
N3945  Co3993  1.980   .     S
N3945  C3947   1.327   .     S
N3945  N4247   1.357   .     S
N3946  C3948   1.335   .     S
C3947  C4270   1.379   .     S
C3948  C3997   1.374   .     S
C3949  C4000   1.372   .     S
C3949  C3950   1.372   .     S
C3950  C3999   1.375   .     S
N3951  Co3994  1.980   .     S
N3951  C3953   1.327   .     S
N3952  C3954   1.335   .     S
N3952  Co4063  1.976   .     S
N3952  N4242   1.349   .     S
C3953  C4002   1.379   .     S
C3954  C4273   1.374   .     S
C3955  C4276   1.372   .     S
C3955  C3956   1.372   .     S
C3956  C4275   1.375   .     S
N3957  Co3995  1.980   .     S
N3957  C3959   1.327   .     S
N3958  C3960   1.335   .     S
N3958  N4050   1.349   .     S
C3959  C4006   1.379   .     S
C3960  C4073   1.374   .     S
C3961  C4076   1.372   .     S
C3961  C3962   1.372   .     S
C3962  C4075   1.375   .     S
N3963  Co3996  1.980   .     S
N3963  C3965   1.327   .     S
N3964  C3966   1.335   .     S
N3964  Co4266  1.976   .     S
N3964  N656    1.349   1_556 S
C3965  C4078   1.379   .     S
C3966  C745    1.374   1_556 S
C3967  C748    1.372   1_556 S
C3967  C3968   1.372   .     S
C3968  C747    1.375   1_556 S
N3969  Co3995  1.980   .     S
N3969  C3971   1.327   .     S
N3969  N4223   1.357   .     S
N3970  C3972   1.335   .     S
N3970  Co4062  1.976   .     S
C3971  C4274   1.379   .     S
C3972  C4001   1.374   .     S
C3973  C4004   1.372   .     S
C3973  C3974   1.372   .     S
C3974  C4003   1.375   .     S
N3975  Co3996  1.980   .     S
N3975  C3977   1.327   .     S
N3976  C3978   1.335   .     S
N3976  N4218   1.349   .     S
C3977  C3998   1.379   .     S
C3978  C4269   1.374   .     S
C3979  C4272   1.372   .     S
C3979  C3980   1.372   .     S
C3980  C4271   1.375   .     S
N3981  Co3993  1.980   .     S
N3981  C3983   1.327   .     S
N3981  N4025   1.357   .     S
N3982  C3984   1.335   .     S
C3983  C4074   1.379   .     S
C3984  C4005   1.374   .     S
C3985  C4008   1.372   .     S
C3985  C3986   1.372   .     S
C3986  C4007   1.375   .     S
N3987  Co3994  1.980   .     S
N3987  C3989   1.327   .     S
N3987  N631    1.357   1_556 S
N3988  C3990   1.335   .     S
N3988  Co4268  1.976   .     S
C3989  C746    1.379   1_556 S
C3990  C4077   1.374   .     S
C3991  C4080   1.372   .     S
C3991  C3992   1.372   .     S
C3992  C4079   1.375   .     S
Co3993 N4230   1.976   .     S
Co3993 N4044   1.976   .     S
Co3995 N4254   1.976   .     S
Co3996 N4014   1.976   .     S
C3997  C4000   1.490   .     S
C3998  C3999   1.481   .     S
C4001  C4004   1.490   .     S
C4002  C4003   1.481   .     S
C4005  C4008   1.490   .     S
C4006  C4007   1.481   .     S
C4009  C4012   1.490   .     S
C4010  C4011   1.481   .     S
N4013  Co4061  1.980   .     S
N4013  C4015   1.327   .     S
N4013  N4315   1.357   .     S
N4014  C4016   1.335   .     S
C4015  C4338   1.379   .     S
C4016  C4065   1.374   .     S
C4017  C4068   1.372   .     S
C4017  C4018   1.372   .     S
C4018  C4067   1.375   .     S
N4019  Co4062  1.980   .     S
N4019  C4021   1.327   .     S
N4020  C4022   1.335   .     S
N4020  Co3859  1.976   1_655 S
N4020  N4310   1.349   .     S
C4021  C4070   1.379   .     S
C4022  C4341   1.374   .     S
C4023  C4344   1.372   .     S
C4023  C4024   1.372   .     S
C4024  C4343   1.375   .     S
N4025  Co4063  1.980   .     S
N4025  C4027   1.327   .     S
N4026  C4028   1.335   .     S
N4026  N3846   1.349   1_655 S
C4027  C4074   1.379   .     S
C4028  C3869   1.374   1_655 S
C4029  C3872   1.372   1_655 S
C4029  C4030   1.372   .     S
C4030  C3871   1.375   1_655 S
N4031  Co4064  1.980   .     S
N4031  C4033   1.327   .     S
N4031  N2763   1.357   1_655 S
N4032  C4034   1.335   .     S
N4032  Co4334  1.976   .     S
N4032  N724    1.349   1_556 S
C4033  C3874   1.379   1_655 S
C4034  C813    1.374   1_556 S
C4035  C816    1.372   1_556 S
C4035  C4036   1.372   .     S
C4036  C815    1.375   1_556 S
N4037  Co4063  1.980   .     S
N4037  C4039   1.327   .     S
N4037  N4291   1.357   .     S
N4038  C4040   1.335   .     S
N4038  Co3858  1.976   1_655 S
C4039  C4342   1.379   .     S
C4040  C4069   1.374   .     S
C4041  C4072   1.372   .     S
C4041  C4042   1.372   .     S
C4042  C4071   1.375   .     S
N4043  Co4064  1.980   .     S
N4043  C4045   1.327   .     S
N4044  C4046   1.335   .     S
N4044  N4286   1.349   .     S
C4045  C4066   1.379   .     S
C4046  C4337   1.374   .     S
C4047  C4340   1.372   .     S
C4047  C4048   1.372   .     S
C4048  C4339   1.375   .     S
N4049  Co4061  1.980   .     S
N4049  C4051   1.327   .     S
N4049  N3821   1.357   1_655 S
N4050  C4052   1.335   .     S
C4051  C3870   1.379   1_655 S
C4052  C4073   1.374   .     S
C4053  C4076   1.372   .     S
C4053  C4054   1.372   .     S
C4054  C4075   1.375   .     S
N4055  Co4062  1.980   .     S
N4055  C4057   1.327   .     S
N4055  N699    1.357   1_556 S
N4056  C4058   1.335   .     S
N4056  Co4336  1.976   .     S
N4056  N2740   1.349   1_655 S
C4057  C814    1.379   1_556 S
C4058  C3873   1.374   1_655 S
C4059  C3876   1.372   1_655 S
C4059  C4060   1.372   .     S
C4060  C3875   1.375   1_655 S
Co4061 N4298   1.976   .     S
Co4061 N3840   1.976   1_655 S
Co4063 N4322   1.976   .     S
Co4064 N3810   1.976   1_655 S
C4065  C4068   1.490   .     S
C4066  C4067   1.481   .     S
C4069  C4072   1.490   .     S
C4070  C4071   1.481   .     S
C4073  C4076   1.490   .     S
C4074  C4075   1.481   .     S
C4077  C4080   1.490   .     S
C4078  C4079   1.481   .     S
N4081  Co4129  1.980   .     S
N4081  C4083   1.327   .     S
N4081  N3295   1.357   1_565 S
N4082  C4084   1.335   .     S
N4082  Co4336  1.976   1_455 S
C4083  C3318   1.379   1_565 S
C4084  C4133   1.374   .     S
C4085  C4136   1.372   .     S
C4085  C4086   1.372   .     S
C4086  C4135   1.375   .     S
N4087  Co4130  1.980   .     S
N4087  C4089   1.327   .     S
N4088  C4090   1.335   .     S
N4088  Co4199  1.976   .     S
N4088  N3290   1.349   1_565 S
C4089  C4138   1.379   .     S
C4090  C3321   1.374   1_565 S
C4091  C3324   1.372   1_565 S
C4091  C4092   1.372   .     S
C4092  C3323   1.375   1_565 S
N4093  Co4131  1.980   .     S
N4093  C4095   1.327   .     S
N4093  N4321   1.357   1_455 S
N4094  C4096   1.335   .     S
N4094  N4186   1.349   .     S
C4095  C4142   1.379   .     S
C4096  C4209   1.374   .     S
C4097  C4212   1.372   .     S
C4097  C4098   1.372   .     S
C4098  C4211   1.375   .     S
N4099  Co4132  1.980   .     S
N4099  C4101   1.327   .     S
N4100  C4102   1.335   .     S
N4100  Co3314  1.976   1_565 S
N4100  N1064   1.349   1_456 S
C4101  C4214   1.379   .     S
C4102  C881    1.374   1_556 S
C4103  C884    1.372   1_556 S
C4103  C4104   1.372   .     S
C4104  C883    1.375   1_556 S
N4105  Co4131  1.980   .     S
N4105  C4107   1.327   .     S
N4105  N3271   1.357   1_565 S
N4106  C4108   1.335   .     S
N4106  Co4198  1.976   .     S
C4107  C3322   1.379   1_565 S
C4108  C4137   1.374   .     S
C4109  C4140   1.372   .     S
C4109  C4110   1.372   .     S
C4110  C4139   1.375   .     S
N4111  Co4132  1.980   .     S
N4111  C4113   1.327   .     S
N4112  C4114   1.335   .     S
N4112  Co4333  1.976   1_455 S
N4112  N3266   1.349   1_565 S
C4113  C4134   1.379   .     S
C4114  C3317   1.374   1_565 S
C4115  C3320   1.372   1_565 S
C4115  C4116   1.372   .     S
C4116  C3319   1.375   1_565 S
N4117  Co4129  1.980   .     S
N4117  C4119   1.327   .     S
N4117  N4161   1.357   .     S
N4118  C4120   1.335   .     S
N4118  N4298   1.349   1_455 S
C4119  C4210   1.379   .     S
C4120  C4141   1.374   .     S
C4121  C4144   1.372   .     S
C4121  C4122   1.372   .     S
C4122  C4143   1.375   .     S
N4123  Co4130  1.980   .     S
N4123  C4125   1.327   .     S
N4123  N1039   1.357   1_456 S
N4124  C4126   1.335   .     S
N4124  Co3316  1.976   1_565 S
C4125  C882    1.379   1_556 S
C4126  C4213   1.374   .     S
C4127  C4216   1.372   .     S
C4127  C4128   1.372   .     S
C4128  C4215   1.375   .     S
Co4129 N3278   1.976   1_565 S
Co4129 N4180   1.976   .     S
Co4130 N4310   1.976   1_455 S
Co4131 N4292   1.976   1_455 S
Co4131 N3302   1.976   1_565 S
Co4132 N4150   1.976   .     S
C4133  C4136   1.490   .     S
C4134  C4135   1.481   .     S
C4137  C4140   1.490   .     S
C4138  C4139   1.481   .     S
C4141  C4300   1.374   1_455 S
C4141  C4144   1.490   .     S
C4142  C4323   1.379   1_455 S
C4142  C4143   1.481   .     S
C4143  C4302   1.375   1_455 S
C4144  C4301   1.372   1_455 S
C4145  C4330   1.374   1_455 S
C4145  C4148   1.490   .     S
C4146  C4305   1.379   1_455 S
C4146  C4147   1.481   .     S
C4147  C4332   1.375   1_455 S
C4148  C4331   1.372   1_455 S
N4149  Co4197  1.980   .     S
N4149  C4151   1.327   .     S
N4149  N3363   1.357   1_565 S
N4150  C4152   1.335   .     S
C4151  C3386   1.379   1_565 S
C4152  C4201   1.374   .     S
C4153  C4204   1.372   .     S
C4153  C4154   1.372   .     S
C4154  C4203   1.375   .     S
N4155  Co4198  1.980   .     S
N4155  C4157   1.327   .     S
N4156  C4158   1.335   .     S
N4156  Co4267  1.976   .     S
N4156  N3358   1.349   1_565 S
C4157  C4206   1.379   .     S
C4158  C3389   1.374   1_565 S
C4159  C3392   1.372   1_565 S
C4159  C4160   1.372   .     S
C4160  C3391   1.375   1_565 S
N4161  Co4199  1.980   .     S
N4161  C4163   1.327   .     S
N4162  C4164   1.335   .     S
N4162  N4254   1.349   .     S
C4163  C4210   1.379   .     S
C4164  C4277   1.374   .     S
C4165  C4280   1.372   .     S
C4165  C4166   1.372   .     S
C4166  C4279   1.375   .     S
N4167  Co4200  1.980   .     S
N4167  C4169   1.327   .     S
N4168  C4170   1.335   .     S
N4168  Co3382  1.976   1_565 S
N4168  N860    1.349   1_556 S
C4169  C4282   1.379   .     S
C4170  C949    1.374   1_556 S
C4171  C952    1.372   1_556 S
C4171  C4172   1.372   .     S
C4172  C951    1.375   1_556 S
N4173  Co4199  1.980   .     S
N4173  C4175   1.327   .     S
N4173  N3339   1.357   1_565 S
N4174  C4176   1.335   .     S
N4174  Co4266  1.976   .     S
C4175  C3390   1.379   1_565 S
C4176  C4205   1.374   .     S
C4177  C4208   1.372   .     S
C4177  C4178   1.372   .     S
C4178  C4207   1.375   .     S
N4179  Co4200  1.980   .     S
N4179  C4181   1.327   .     S
N4180  C4182   1.335   .     S
N4180  N3334   1.349   1_565 S
C4181  C4202   1.379   .     S
C4182  C3385   1.374   1_565 S
C4183  C3388   1.372   1_565 S
C4183  C4184   1.372   .     S
C4184  C3387   1.375   1_565 S
N4185  Co4197  1.980   .     S
N4185  C4187   1.327   .     S
N4185  N4229   1.357   .     S
N4186  C4188   1.335   .     S
C4187  C4278   1.379   .     S
C4188  C4209   1.374   .     S
C4189  C4212   1.372   .     S
C4189  C4190   1.372   .     S
C4190  C4211   1.375   .     S
N4191  Co4198  1.980   .     S
N4191  C4193   1.327   .     S
N4191  N835    1.357   1_556 S
N4192  C4194   1.335   .     S
N4192  Co3384  1.976   1_565 S
C4193  C950    1.379   1_556 S
C4194  C4281   1.374   .     S
C4195  C4284   1.372   .     S
C4195  C4196   1.372   .     S
C4196  C4283   1.375   .     S
Co4197 N3346   1.976   1_565 S
Co4197 N4248   1.976   .     S
Co4199 N3370   1.976   1_565 S
Co4200 N4218   1.976   .     S
C4201  C4204   1.490   .     S
C4202  C4203   1.481   .     S
C4205  C4208   1.490   .     S
C4206  C4207   1.481   .     S
C4209  C4212   1.490   .     S
C4210  C4211   1.481   .     S
C4213  C4216   1.490   .     S
C4214  C4215   1.481   .     S
N4217  Co4265  1.980   .     S
N4217  C4219   1.327   .     S
N4217  N3431   1.357   1_565 S
N4218  C4220   1.335   .     S
C4219  C3454   1.379   1_565 S
C4220  C4269   1.374   .     S
C4221  C4272   1.372   .     S
C4221  C4222   1.372   .     S
C4222  C4271   1.375   .     S
N4223  Co4266  1.980   .     S
N4223  C4225   1.327   .     S
N4224  C4226   1.335   .     S
N4224  Co4335  1.976   .     S
N4224  N3426   1.349   1_565 S
C4225  C4274   1.379   .     S
C4226  C3457   1.374   1_565 S
C4227  C3460   1.372   1_565 S
C4227  C4228   1.372   .     S
C4228  C3459   1.375   1_565 S
N4229  Co4267  1.980   .     S
N4229  C4231   1.327   .     S
N4230  C4232   1.335   .     S
N4230  N4322   1.349   .     S
C4231  C4278   1.379   .     S
C4232  C4345   1.374   .     S
C4233  C4348   1.372   .     S
C4233  C4234   1.372   .     S
C4234  C4347   1.375   .     S
N4235  Co4268  1.980   .     S
N4235  C4237   1.327   .     S
N4236  C4238   1.335   .     S
N4236  Co3450  1.976   1_565 S
N4236  N928    1.349   1_556 S
C4237  C4350   1.379   .     S
C4238  C1017   1.374   1_556 S
C4239  C1020   1.372   1_556 S
C4239  C4240   1.372   .     S
C4240  C1019   1.375   1_556 S
N4241  Co4267  1.980   .     S
N4241  C4243   1.327   .     S
N4241  N3407   1.357   1_565 S
N4242  C4244   1.335   .     S
N4242  Co4334  1.976   .     S
C4243  C3458   1.379   1_565 S
C4244  C4273   1.374   .     S
C4245  C4276   1.372   .     S
C4245  C4246   1.372   .     S
C4246  C4275   1.375   .     S
N4247  Co4268  1.980   .     S
N4247  C4249   1.327   .     S
N4248  C4250   1.335   .     S
N4248  N3402   1.349   1_565 S
C4249  C4270   1.379   .     S
C4250  C3453   1.374   1_565 S
C4251  C3456   1.372   1_565 S
C4251  C4252   1.372   .     S
C4252  C3455   1.375   1_565 S
N4253  Co4265  1.980   .     S
N4253  C4255   1.327   .     S
N4253  N4297   1.357   .     S
N4254  C4256   1.335   .     S
C4255  C4346   1.379   .     S
C4256  C4277   1.374   .     S
C4257  C4280   1.372   .     S
C4257  C4258   1.372   .     S
C4258  C4279   1.375   .     S
N4259  Co4266  1.980   .     S
N4259  C4261   1.327   .     S
N4259  N903    1.357   1_556 S
N4260  C4262   1.335   .     S
N4260  Co3452  1.976   1_565 S
C4261  C1018   1.379   1_556 S
C4262  C4349   1.374   .     S
C4263  C4352   1.372   .     S
C4263  C4264   1.372   .     S
C4264  C4351   1.375   .     S
Co4265 N3414   1.976   1_565 S
Co4265 N4316   1.976   .     S
Co4267 N3438   1.976   1_565 S
Co4268 N4286   1.976   .     S
C4269  C4272   1.490   .     S
C4270  C4271   1.481   .     S
C4273  C4276   1.490   .     S
C4274  C4275   1.481   .     S
C4277  C4280   1.490   .     S
C4278  C4279   1.481   .     S
C4281  C4284   1.490   .     S
C4282  C4283   1.481   .     S
N4285  Co4333  1.980   .     S
N4285  C4287   1.327   .     S
N4285  N3499   1.357   1_565 S
N4286  C4288   1.335   .     S
C4287  C3522   1.379   1_565 S
C4288  C4337   1.374   .     S
C4289  C4340   1.372   .     S
C4289  C4290   1.372   .     S
C4290  C4339   1.375   .     S
N4291  Co4334  1.980   .     S
N4291  C4293   1.327   .     S
N4292  C4294   1.335   .     S
N4292  Co4131  1.976   1_655 S
N4292  N3494   1.349   1_565 S
C4293  C4342   1.379   .     S
C4294  C3525   1.374   1_565 S
C4295  C3528   1.372   1_565 S
C4295  C4296   1.372   .     S
C4296  C3527   1.375   1_565 S
N4297  Co4335  1.980   .     S
N4297  C4299   1.327   .     S
N4298  C4300   1.335   .     S
N4298  N4118   1.349   1_655 S
C4299  C4346   1.379   .     S
C4300  C4141   1.374   1_655 S
C4301  C4144   1.372   1_655 S
C4301  C4302   1.372   .     S
C4302  C4143   1.375   1_655 S
N4303  Co4336  1.980   .     S
N4303  C4305   1.327   .     S
N4303  N3035   1.357   1_655 S
N4304  C4306   1.335   .     S
N4304  Co3518  1.976   1_565 S
N4304  N996    1.349   1_556 S
C4305  C4146   1.379   1_655 S
C4306  C1085   1.374   1_556 S
C4307  C1088   1.372   1_556 S
C4307  C4308   1.372   .     S
C4308  C1087   1.375   1_556 S
N4309  Co4335  1.980   .     S
N4309  C4311   1.327   .     S
N4309  N3475   1.357   1_565 S
N4310  C4312   1.335   .     S
N4310  Co4130  1.976   1_655 S
C4311  C3526   1.379   1_565 S
C4312  C4341   1.374   .     S
C4313  C4344   1.372   .     S
C4313  C4314   1.372   .     S
C4314  C4343   1.375   .     S
N4315  Co4336  1.980   .     S
N4315  C4317   1.327   .     S
N4316  C4318   1.335   .     S
N4316  N3470   1.349   1_565 S
C4317  C4338   1.379   .     S
C4318  C3521   1.374   1_565 S
C4319  C3524   1.372   1_565 S
C4319  C4320   1.372   .     S
C4320  C3523   1.375   1_565 S
N4321  Co4333  1.980   .     S
N4321  C4323   1.327   .     S
N4321  N4093   1.357   1_655 S
N4322  C4324   1.335   .     S
C4323  C4142   1.379   1_655 S
C4324  C4345   1.374   .     S
C4325  C4348   1.372   .     S
C4325  C4326   1.372   .     S
C4326  C4347   1.375   .     S
N4327  Co4334  1.980   .     S
N4327  C4329   1.327   .     S
N4327  N971    1.357   1_556 S
N4328  C4330   1.335   .     S
N4328  Co3520  1.976   1_565 S
N4328  N3012   1.349   1_655 S
C4329  C1086   1.379   1_556 S
C4330  C4145   1.374   1_655 S
C4331  C4148   1.372   1_655 S
C4331  C4332   1.372   .     S
C4332  C4147   1.375   1_655 S
Co4333 N3482   1.976   1_565 S
Co4333 N4112   1.976   1_655 S
Co4335 N3506   1.976   1_565 S
Co4336 N4082   1.976   1_655 S
C4337  C4340   1.490   .     S
C4338  C4339   1.481   .     S
C4341  C4344   1.490   .     S
C4342  C4343   1.481   .     S
C4345  C4348   1.490   .     S
C4346  C4347   1.481   .     S
C4349  C4352   1.490   .     S
C4350  C4351   1.481   .     S
