data_Co(bdp)-solvated_4-4-4
_audit_creation_date              2020-05-22
_audit_creation_method            'Materials Studio'
_symmetry_space_group_name_H-M    'P1'
_symmetry_Int_Tables_number       1
_symmetry_cell_setting            triclinic
loop_
_symmetry_equiv_pos_as_xyz
  x,y,z
_cell_length_a                    53.0832
_cell_length_b                    53.0832
_cell_length_c                    57.4008
_cell_angle_alpha                 90.0000
_cell_angle_beta                  90.0000
_cell_angle_gamma                 90.0000
loop_
_atom_site_label
_atom_site_type_symbol
_atom_site_fract_x
_atom_site_fract_y
_atom_site_fract_z
_atom_site_U_iso_or_equiv
_atom_site_adp_type
_atom_site_occupancy
N1     N     0.21686   0.24600   0.07373   0.03357  Uani   1.00
N2     N     0.02778   0.00163   0.05085   0.03837  Uani   1.00
C3     C     0.19301   0.24380   0.08035   0.04437  Uani   1.00
H4     H     0.18780   0.23865   0.09545   0.05300  Uiso   1.00
C5     C     0.05177   0.00253   0.04393   0.05277  Uani   1.00
H6     H     0.05700   0.00465   0.02823   0.06300  Uiso   1.00
C7     C     0.10943   0.00565   0.04278   0.06813  Uani   1.00
H8     H     0.10068   0.00990   0.02890   0.08200  Uiso   1.00
C9     C     0.13528   0.00528   0.04270   0.07560  Uani   1.00
H10    H     0.14398   0.00875   0.02863   0.09100  Uiso   1.00
N11    N     0.03314   0.00400   0.19873   0.03357  Uani   1.00
N12    N     0.22221   0.24837   0.17585   0.03837  Uani   1.00
C13    C     0.05699   0.00620   0.20535   0.04437  Uani   1.00
H14    H     0.06220   0.01135   0.22045   0.05300  Uiso   1.00
C15    C     0.19823   0.24747   0.16893   0.05277  Uani   1.00
H16    H     0.19300   0.24535   0.15323   0.06300  Uiso   1.00
C17    C     0.14057   0.24435   0.16778   0.06813  Uani   1.00
H18    H     0.14932   0.24010   0.15390   0.08200  Uiso   1.00
C19    C     0.11472   0.24472   0.16770   0.07560  Uani   1.00
H20    H     0.10602   0.24125   0.15363   0.09100  Uiso   1.00
N21    N     0.00400   0.21686   0.13623   0.03357  Uani   1.00
N22    N     0.24837   0.02779   0.11335   0.03837  Uani   1.00
C23    C     0.00620   0.19301   0.14285   0.04437  Uani   1.00
H24    H     0.01135   0.18780   0.15795   0.05300  Uiso   1.00
C25    C     0.24748   0.05178   0.10643   0.05277  Uani   1.00
H26    H     0.24535   0.05700   0.09073   0.06300  Uiso   1.00
C27    C     0.24435   0.10943   0.10528   0.06813  Uani   1.00
H28    H     0.24010   0.10068   0.09140   0.08200  Uiso   1.00
C29    C     0.24473   0.13528   0.10520   0.07560  Uani   1.00
H30    H     0.24125   0.14398   0.09113   0.09100  Uiso   1.00
N31    N     0.24600   0.03314   0.01123   0.03357  Uani   1.00
N32    N     0.00163   0.22221   0.23835   0.03837  Uani   1.00
C33    C     0.24380   0.05699   0.01785   0.04437  Uani   1.00
H34    H     0.23865   0.06220   0.03295   0.05300  Uiso   1.00
C35    C     0.00253   0.19823   0.23143   0.05277  Uani   1.00
H36    H     0.00465   0.19300   0.21573   0.06300  Uiso   1.00
C37    C     0.00565   0.14058   0.23028   0.06813  Uani   1.00
H38    H     0.00990   0.14933   0.21640   0.08200  Uiso   1.00
C39    C     0.00528   0.11472   0.23020   0.07560  Uani   1.00
H40    H     0.00875   0.10602   0.21613   0.09100  Uiso   1.00
N41    N     0.03314   0.24600   0.17627   0.03357  Uani   1.00
N42    N     0.22221   0.00163   0.19915   0.03837  Uani   1.00
C43    C     0.05699   0.24380   0.16965   0.04437  Uani   1.00
H44    H     0.06220   0.23865   0.15455   0.05300  Uiso   1.00
C45    C     0.19823   0.00253   0.20608   0.05277  Uani   1.00
H46    H     0.19300   0.00465   0.22178   0.06300  Uiso   1.00
C47    C     0.14057   0.00565   0.20723   0.06813  Uani   1.00
H48    H     0.14932   0.00990   0.22110   0.08200  Uiso   1.00
C49    C     0.11472   0.00528   0.20730   0.07560  Uani   1.00
H50    H     0.10602   0.00875   0.22138   0.09100  Uiso   1.00
N51    N     0.21686   0.00400   0.05127   0.03357  Uani   1.00
N52    N     0.02778   0.24837   0.07415   0.03837  Uani   1.00
C53    C     0.19301   0.00620   0.04465   0.04437  Uani   1.00
H54    H     0.18780   0.01135   0.02955   0.05300  Uiso   1.00
C55    C     0.05177   0.24747   0.08108   0.05277  Uani   1.00
H56    H     0.05700   0.24535   0.09678   0.06300  Uiso   1.00
C57    C     0.10943   0.24435   0.08223   0.06813  Uani   1.00
H58    H     0.10068   0.24010   0.09610   0.08200  Uiso   1.00
C59    C     0.13528   0.24472   0.08230   0.07560  Uani   1.00
H60    H     0.14398   0.24125   0.09638   0.09100  Uiso   1.00
N61    N     0.24600   0.21686   0.11377   0.03357  Uani   1.00
N62    N     0.00163   0.02779   0.13665   0.03837  Uani   1.00
C63    C     0.24380   0.19301   0.10715   0.04437  Uani   1.00
H64    H     0.23865   0.18780   0.09205   0.05300  Uiso   1.00
C65    C     0.00253   0.05178   0.14358   0.05277  Uani   1.00
H66    H     0.00465   0.05700   0.15928   0.06300  Uiso   1.00
C67    C     0.00565   0.10943   0.14473   0.06813  Uani   1.00
H68    H     0.00990   0.10068   0.15860   0.08200  Uiso   1.00
C69    C     0.00528   0.13528   0.14480   0.07560  Uani   1.00
H70    H     0.00875   0.14398   0.15888   0.09100  Uiso   1.00
N71    N     0.00400   0.03314   0.23877   0.03357  Uani   1.00
N72    N     0.24837   0.22221   0.01165   0.03837  Uani   1.00
C73    C     0.00620   0.05699   0.23215   0.04437  Uani   1.00
H74    H     0.01135   0.06220   0.21705   0.05300  Uiso   1.00
C75    C     0.24748   0.19823   0.01857   0.05277  Uani   1.00
H76    H     0.24535   0.19300   0.03428   0.06300  Uiso   1.00
C77    C     0.24435   0.14058   0.01973   0.06813  Uani   1.00
H78    H     0.24010   0.14933   0.03360   0.08200  Uiso   1.00
C79    C     0.24473   0.11472   0.01980   0.07560  Uani   1.00
H80    H     0.24125   0.10602   0.03388   0.09100  Uiso   1.00
Co81   Co    0.24721   0.24721   0.09375   0.02543  Uani   1.00
Co82   Co    0.00279   0.00279   0.21875   0.02543  Uani   1.00
Co83   Co    0.00279   0.24721   0.15625   0.02543  Uani   1.00
Co84   Co    0.24721   0.00279   0.03125   0.02543  Uani   1.00
C85    C     0.06790   0.00000   0.06250   0.04747  Uani   1.00
C86    C     0.17678   0.00000   0.06250   0.04137  Uani   1.00
C87    C     0.14888   0.00000   0.06250   0.05083  Uani   1.00
C88    C     0.09598   0.00000   0.06250   0.05433  Uani   1.00
C89    C     0.18210   0.00000   0.18750   0.04747  Uani   1.00
C90    C     0.07322   0.00000   0.18750   0.04137  Uani   1.00
C91    C     0.10112   0.00000   0.18750   0.05083  Uani   1.00
C92    C     0.15402   0.00000   0.18750   0.05433  Uani   1.00
C93    C     0.00000   0.06790   0.12500   0.04747  Uani   1.00
C94    C     0.00000   0.17678   0.12500   0.04137  Uani   1.00
C95    C     0.00000   0.14888   0.12500   0.05083  Uani   1.00
C96    C     0.00000   0.09598   0.12500   0.05433  Uani   1.00
C97    C     0.00000   0.18210   0.00000   0.04747  Uani   1.00
C98    C     0.00000   0.07322   0.00000   0.04137  Uani   1.00
C99    C     0.00000   0.10112   0.00000   0.05083  Uani   1.00
C100   C     0.00000   0.15402   0.00000   0.05433  Uani   1.00
N101   N     0.46686   0.24600   0.07373   0.03357  Uani   1.00
N102   N     0.27778   0.00163   0.05085   0.03837  Uani   1.00
C103   C     0.44301   0.24380   0.08035   0.04437  Uani   1.00
H104   H     0.43780   0.23865   0.09545   0.05300  Uiso   1.00
C105   C     0.30177   0.00253   0.04393   0.05277  Uani   1.00
H106   H     0.30700   0.00465   0.02823   0.06300  Uiso   1.00
C107   C     0.35943   0.00565   0.04278   0.06813  Uani   1.00
H108   H     0.35068   0.00990   0.02890   0.08200  Uiso   1.00
C109   C     0.38528   0.00528   0.04270   0.07560  Uani   1.00
H110   H     0.39398   0.00875   0.02863   0.09100  Uiso   1.00
N111   N     0.28314   0.00400   0.19873   0.03357  Uani   1.00
N112   N     0.47222   0.24837   0.17585   0.03837  Uani   1.00
C113   C     0.30699   0.00620   0.20535   0.04437  Uani   1.00
H114   H     0.31220   0.01135   0.22045   0.05300  Uiso   1.00
C115   C     0.44822   0.24747   0.16893   0.05277  Uani   1.00
H116   H     0.44300   0.24535   0.15323   0.06300  Uiso   1.00
C117   C     0.39057   0.24435   0.16778   0.06813  Uani   1.00
H118   H     0.39933   0.24010   0.15390   0.08200  Uiso   1.00
C119   C     0.36472   0.24472   0.16770   0.07560  Uani   1.00
H120   H     0.35602   0.24125   0.15363   0.09100  Uiso   1.00
N121   N     0.25400   0.21686   0.13623   0.03357  Uani   1.00
N122   N     0.49838   0.02779   0.11335   0.03837  Uani   1.00
C123   C     0.25620   0.19301   0.14285   0.04437  Uani   1.00
H124   H     0.26135   0.18780   0.15795   0.05300  Uiso   1.00
C125   C     0.49748   0.05178   0.10643   0.05277  Uani   1.00
H126   H     0.49535   0.05700   0.09073   0.06300  Uiso   1.00
C127   C     0.49435   0.10943   0.10528   0.06813  Uani   1.00
H128   H     0.49010   0.10068   0.09140   0.08200  Uiso   1.00
C129   C     0.49473   0.13528   0.10520   0.07560  Uani   1.00
H130   H     0.49125   0.14398   0.09113   0.09100  Uiso   1.00
N131   N     0.49600   0.03314   0.01123   0.03357  Uani   1.00
N132   N     0.25163   0.22221   0.23835   0.03837  Uani   1.00
C133   C     0.49380   0.05699   0.01785   0.04437  Uani   1.00
H134   H     0.48865   0.06220   0.03295   0.05300  Uiso   1.00
C135   C     0.25253   0.19823   0.23143   0.05277  Uani   1.00
H136   H     0.25465   0.19300   0.21573   0.06300  Uiso   1.00
C137   C     0.25565   0.14058   0.23028   0.06813  Uani   1.00
H138   H     0.25990   0.14933   0.21640   0.08200  Uiso   1.00
C139   C     0.25528   0.11472   0.23020   0.07560  Uani   1.00
H140   H     0.25875   0.10602   0.21613   0.09100  Uiso   1.00
N141   N     0.28314   0.24600   0.17627   0.03357  Uani   1.00
N142   N     0.47222   0.00163   0.19915   0.03837  Uani   1.00
C143   C     0.30699   0.24380   0.16965   0.04437  Uani   1.00
H144   H     0.31220   0.23865   0.15455   0.05300  Uiso   1.00
C145   C     0.44822   0.00253   0.20608   0.05277  Uani   1.00
H146   H     0.44300   0.00465   0.22178   0.06300  Uiso   1.00
C147   C     0.39057   0.00565   0.20723   0.06813  Uani   1.00
H148   H     0.39933   0.00990   0.22110   0.08200  Uiso   1.00
C149   C     0.36472   0.00528   0.20730   0.07560  Uani   1.00
H150   H     0.35602   0.00875   0.22138   0.09100  Uiso   1.00
N151   N     0.46686   0.00400   0.05127   0.03357  Uani   1.00
N152   N     0.27778   0.24837   0.07415   0.03837  Uani   1.00
C153   C     0.44301   0.00620   0.04465   0.04437  Uani   1.00
H154   H     0.43780   0.01135   0.02955   0.05300  Uiso   1.00
C155   C     0.30177   0.24747   0.08108   0.05277  Uani   1.00
H156   H     0.30700   0.24535   0.09678   0.06300  Uiso   1.00
C157   C     0.35943   0.24435   0.08223   0.06813  Uani   1.00
H158   H     0.35068   0.24010   0.09610   0.08200  Uiso   1.00
C159   C     0.38528   0.24472   0.08230   0.07560  Uani   1.00
H160   H     0.39398   0.24125   0.09638   0.09100  Uiso   1.00
N161   N     0.49600   0.21686   0.11377   0.03357  Uani   1.00
N162   N     0.25163   0.02779   0.13665   0.03837  Uani   1.00
C163   C     0.49380   0.19301   0.10715   0.04437  Uani   1.00
H164   H     0.48865   0.18780   0.09205   0.05300  Uiso   1.00
C165   C     0.25253   0.05178   0.14358   0.05277  Uani   1.00
H166   H     0.25465   0.05700   0.15928   0.06300  Uiso   1.00
C167   C     0.25565   0.10943   0.14473   0.06813  Uani   1.00
H168   H     0.25990   0.10068   0.15860   0.08200  Uiso   1.00
C169   C     0.25528   0.13528   0.14480   0.07560  Uani   1.00
H170   H     0.25875   0.14398   0.15888   0.09100  Uiso   1.00
N171   N     0.25400   0.03314   0.23877   0.03357  Uani   1.00
N172   N     0.49838   0.22221   0.01165   0.03837  Uani   1.00
C173   C     0.25620   0.05699   0.23215   0.04437  Uani   1.00
H174   H     0.26135   0.06220   0.21705   0.05300  Uiso   1.00
C175   C     0.49748   0.19823   0.01857   0.05277  Uani   1.00
H176   H     0.49535   0.19300   0.03428   0.06300  Uiso   1.00
C177   C     0.49435   0.14058   0.01973   0.06813  Uani   1.00
H178   H     0.49010   0.14933   0.03360   0.08200  Uiso   1.00
C179   C     0.49473   0.11472   0.01980   0.07560  Uani   1.00
H180   H     0.49125   0.10602   0.03388   0.09100  Uiso   1.00
Co181  Co    0.49721   0.24721   0.09375   0.02543  Uani   1.00
Co182  Co    0.25279   0.00279   0.21875   0.02543  Uani   1.00
Co183  Co    0.25279   0.24721   0.15625   0.02543  Uani   1.00
Co184  Co    0.49721   0.00279   0.03125   0.02543  Uani   1.00
C185   C     0.31790   0.00000   0.06250   0.04747  Uani   1.00
C186   C     0.42678   0.00000   0.06250   0.04137  Uani   1.00
C187   C     0.39888   0.00000   0.06250   0.05083  Uani   1.00
C188   C     0.34598   0.00000   0.06250   0.05433  Uani   1.00
C189   C     0.43210   0.00000   0.18750   0.04747  Uani   1.00
C190   C     0.32322   0.00000   0.18750   0.04137  Uani   1.00
C191   C     0.35112   0.00000   0.18750   0.05083  Uani   1.00
C192   C     0.40403   0.00000   0.18750   0.05433  Uani   1.00
C193   C     0.25000   0.06790   0.12500   0.04747  Uani   1.00
C194   C     0.25000   0.17678   0.12500   0.04137  Uani   1.00
C195   C     0.25000   0.14888   0.12500   0.05083  Uani   1.00
C196   C     0.25000   0.09598   0.12500   0.05433  Uani   1.00
C197   C     0.25000   0.18210   0.00000   0.04747  Uani   1.00
C198   C     0.25000   0.07322   0.00000   0.04137  Uani   1.00
C199   C     0.25000   0.10112   0.00000   0.05083  Uani   1.00
C200   C     0.25000   0.15402   0.00000   0.05433  Uani   1.00
N201   N     0.71686   0.24600   0.07373   0.03357  Uani   1.00
N202   N     0.52779   0.00163   0.05085   0.03837  Uani   1.00
C203   C     0.69301   0.24380   0.08035   0.04437  Uani   1.00
H204   H     0.68780   0.23865   0.09545   0.05300  Uiso   1.00
C205   C     0.55178   0.00253   0.04393   0.05277  Uani   1.00
H206   H     0.55700   0.00465   0.02823   0.06300  Uiso   1.00
C207   C     0.60943   0.00565   0.04278   0.06813  Uani   1.00
H208   H     0.60068   0.00990   0.02890   0.08200  Uiso   1.00
C209   C     0.63528   0.00528   0.04270   0.07560  Uani   1.00
H210   H     0.64398   0.00875   0.02863   0.09100  Uiso   1.00
N211   N     0.53314   0.00400   0.19873   0.03357  Uani   1.00
N212   N     0.72222   0.24837   0.17585   0.03837  Uani   1.00
C213   C     0.55699   0.00620   0.20535   0.04437  Uani   1.00
H214   H     0.56220   0.01135   0.22045   0.05300  Uiso   1.00
C215   C     0.69823   0.24747   0.16893   0.05277  Uani   1.00
H216   H     0.69300   0.24535   0.15323   0.06300  Uiso   1.00
C217   C     0.64058   0.24435   0.16778   0.06813  Uani   1.00
H218   H     0.64933   0.24010   0.15390   0.08200  Uiso   1.00
C219   C     0.61473   0.24472   0.16770   0.07560  Uani   1.00
H220   H     0.60603   0.24125   0.15363   0.09100  Uiso   1.00
N221   N     0.50400   0.21686   0.13623   0.03357  Uani   1.00
N222   N     0.74837   0.02779   0.11335   0.03837  Uani   1.00
C223   C     0.50620   0.19301   0.14285   0.04437  Uani   1.00
H224   H     0.51135   0.18780   0.15795   0.05300  Uiso   1.00
C225   C     0.74748   0.05178   0.10643   0.05277  Uani   1.00
H226   H     0.74535   0.05700   0.09073   0.06300  Uiso   1.00
C227   C     0.74435   0.10943   0.10528   0.06813  Uani   1.00
H228   H     0.74010   0.10068   0.09140   0.08200  Uiso   1.00
C229   C     0.74473   0.13528   0.10520   0.07560  Uani   1.00
H230   H     0.74125   0.14398   0.09113   0.09100  Uiso   1.00
N231   N     0.74600   0.03314   0.01123   0.03357  Uani   1.00
N232   N     0.50163   0.22221   0.23835   0.03837  Uani   1.00
C233   C     0.74380   0.05699   0.01785   0.04437  Uani   1.00
H234   H     0.73865   0.06220   0.03295   0.05300  Uiso   1.00
C235   C     0.50253   0.19823   0.23143   0.05277  Uani   1.00
H236   H     0.50465   0.19300   0.21573   0.06300  Uiso   1.00
C237   C     0.50565   0.14058   0.23028   0.06813  Uani   1.00
H238   H     0.50990   0.14933   0.21640   0.08200  Uiso   1.00
C239   C     0.50528   0.11472   0.23020   0.07560  Uani   1.00
H240   H     0.50875   0.10602   0.21613   0.09100  Uiso   1.00
N241   N     0.53314   0.24600   0.17627   0.03357  Uani   1.00
N242   N     0.72222   0.00163   0.19915   0.03837  Uani   1.00
C243   C     0.55699   0.24380   0.16965   0.04437  Uani   1.00
H244   H     0.56220   0.23865   0.15455   0.05300  Uiso   1.00
C245   C     0.69823   0.00253   0.20608   0.05277  Uani   1.00
H246   H     0.69300   0.00465   0.22178   0.06300  Uiso   1.00
C247   C     0.64058   0.00565   0.20723   0.06813  Uani   1.00
H248   H     0.64933   0.00990   0.22110   0.08200  Uiso   1.00
C249   C     0.61473   0.00528   0.20730   0.07560  Uani   1.00
H250   H     0.60603   0.00875   0.22138   0.09100  Uiso   1.00
N251   N     0.71686   0.00400   0.05127   0.03357  Uani   1.00
N252   N     0.52779   0.24837   0.07415   0.03837  Uani   1.00
C253   C     0.69301   0.00620   0.04465   0.04437  Uani   1.00
H254   H     0.68780   0.01135   0.02955   0.05300  Uiso   1.00
C255   C     0.55178   0.24747   0.08108   0.05277  Uani   1.00
H256   H     0.55700   0.24535   0.09678   0.06300  Uiso   1.00
C257   C     0.60943   0.24435   0.08223   0.06813  Uani   1.00
H258   H     0.60068   0.24010   0.09610   0.08200  Uiso   1.00
C259   C     0.63528   0.24472   0.08230   0.07560  Uani   1.00
H260   H     0.64398   0.24125   0.09638   0.09100  Uiso   1.00
N261   N     0.74600   0.21686   0.11377   0.03357  Uani   1.00
N262   N     0.50163   0.02779   0.13665   0.03837  Uani   1.00
C263   C     0.74380   0.19301   0.10715   0.04437  Uani   1.00
H264   H     0.73865   0.18780   0.09205   0.05300  Uiso   1.00
C265   C     0.50253   0.05178   0.14358   0.05277  Uani   1.00
H266   H     0.50465   0.05700   0.15928   0.06300  Uiso   1.00
C267   C     0.50565   0.10943   0.14473   0.06813  Uani   1.00
H268   H     0.50990   0.10068   0.15860   0.08200  Uiso   1.00
C269   C     0.50528   0.13528   0.14480   0.07560  Uani   1.00
H270   H     0.50875   0.14398   0.15888   0.09100  Uiso   1.00
N271   N     0.50400   0.03314   0.23877   0.03357  Uani   1.00
N272   N     0.74837   0.22221   0.01165   0.03837  Uani   1.00
C273   C     0.50620   0.05699   0.23215   0.04437  Uani   1.00
H274   H     0.51135   0.06220   0.21705   0.05300  Uiso   1.00
C275   C     0.74748   0.19823   0.01857   0.05277  Uani   1.00
H276   H     0.74535   0.19300   0.03428   0.06300  Uiso   1.00
C277   C     0.74435   0.14058   0.01973   0.06813  Uani   1.00
H278   H     0.74010   0.14933   0.03360   0.08200  Uiso   1.00
C279   C     0.74473   0.11472   0.01980   0.07560  Uani   1.00
H280   H     0.74125   0.10602   0.03388   0.09100  Uiso   1.00
Co281  Co    0.74721   0.24721   0.09375   0.02543  Uani   1.00
Co282  Co    0.50279   0.00279   0.21875   0.02543  Uani   1.00
Co283  Co    0.50279   0.24721   0.15625   0.02543  Uani   1.00
Co284  Co    0.74721   0.00279   0.03125   0.02543  Uani   1.00
C285   C     0.56790   0.00000   0.06250   0.04747  Uani   1.00
C286   C     0.67678   0.00000   0.06250   0.04137  Uani   1.00
C287   C     0.64888   0.00000   0.06250   0.05083  Uani   1.00
C288   C     0.59598   0.00000   0.06250   0.05433  Uani   1.00
C289   C     0.68210   0.00000   0.18750   0.04747  Uani   1.00
C290   C     0.57322   0.00000   0.18750   0.04137  Uani   1.00
C291   C     0.60112   0.00000   0.18750   0.05083  Uani   1.00
C292   C     0.65402   0.00000   0.18750   0.05433  Uani   1.00
C293   C     0.50000   0.06790   0.12500   0.04747  Uani   1.00
C294   C     0.50000   0.17678   0.12500   0.04137  Uani   1.00
C295   C     0.50000   0.14888   0.12500   0.05083  Uani   1.00
C296   C     0.50000   0.09598   0.12500   0.05433  Uani   1.00
C297   C     0.50000   0.18210   0.00000   0.04747  Uani   1.00
C298   C     0.50000   0.07322   0.00000   0.04137  Uani   1.00
C299   C     0.50000   0.10112   0.00000   0.05083  Uani   1.00
C300   C     0.50000   0.15402   0.00000   0.05433  Uani   1.00
N301   N     0.96686   0.24600   0.07373   0.03357  Uani   1.00
N302   N     0.77779   0.00163   0.05085   0.03837  Uani   1.00
C303   C     0.94301   0.24380   0.08035   0.04437  Uani   1.00
H304   H     0.93780   0.23865   0.09545   0.05300  Uiso   1.00
C305   C     0.80178   0.00253   0.04393   0.05277  Uani   1.00
H306   H     0.80700   0.00465   0.02823   0.06300  Uiso   1.00
C307   C     0.85943   0.00565   0.04278   0.06813  Uani   1.00
H308   H     0.85068   0.00990   0.02890   0.08200  Uiso   1.00
C309   C     0.88528   0.00528   0.04270   0.07560  Uani   1.00
H310   H     0.89398   0.00875   0.02863   0.09100  Uiso   1.00
N311   N     0.78314   0.00400   0.19873   0.03357  Uani   1.00
N312   N     0.97222   0.24837   0.17585   0.03837  Uani   1.00
C313   C     0.80699   0.00620   0.20535   0.04437  Uani   1.00
H314   H     0.81220   0.01135   0.22045   0.05300  Uiso   1.00
C315   C     0.94823   0.24747   0.16893   0.05277  Uani   1.00
H316   H     0.94300   0.24535   0.15323   0.06300  Uiso   1.00
C317   C     0.89058   0.24435   0.16778   0.06813  Uani   1.00
H318   H     0.89933   0.24010   0.15390   0.08200  Uiso   1.00
C319   C     0.86472   0.24472   0.16770   0.07560  Uani   1.00
H320   H     0.85602   0.24125   0.15363   0.09100  Uiso   1.00
N321   N     0.75400   0.21686   0.13623   0.03357  Uani   1.00
N322   N     0.99838   0.02779   0.11335   0.03837  Uani   1.00
C323   C     0.75620   0.19301   0.14285   0.04437  Uani   1.00
H324   H     0.76135   0.18780   0.15795   0.05300  Uiso   1.00
C325   C     0.99748   0.05178   0.10643   0.05277  Uani   1.00
H326   H     0.99535   0.05700   0.09073   0.06300  Uiso   1.00
C327   C     0.99435   0.10943   0.10528   0.06813  Uani   1.00
H328   H     0.99010   0.10068   0.09140   0.08200  Uiso   1.00
C329   C     0.99473   0.13528   0.10520   0.07560  Uani   1.00
H330   H     0.99125   0.14398   0.09113   0.09100  Uiso   1.00
N331   N     0.99600   0.03314   0.01123   0.03357  Uani   1.00
N332   N     0.75163   0.22221   0.23835   0.03837  Uani   1.00
C333   C     0.99380   0.05699   0.01785   0.04437  Uani   1.00
H334   H     0.98865   0.06220   0.03295   0.05300  Uiso   1.00
C335   C     0.75253   0.19823   0.23143   0.05277  Uani   1.00
H336   H     0.75465   0.19300   0.21573   0.06300  Uiso   1.00
C337   C     0.75565   0.14058   0.23028   0.06813  Uani   1.00
H338   H     0.75990   0.14933   0.21640   0.08200  Uiso   1.00
C339   C     0.75528   0.11472   0.23020   0.07560  Uani   1.00
H340   H     0.75875   0.10602   0.21613   0.09100  Uiso   1.00
N341   N     0.78314   0.24600   0.17627   0.03357  Uani   1.00
N342   N     0.97222   0.00163   0.19915   0.03837  Uani   1.00
C343   C     0.80699   0.24380   0.16965   0.04437  Uani   1.00
H344   H     0.81220   0.23865   0.15455   0.05300  Uiso   1.00
C345   C     0.94823   0.00253   0.20608   0.05277  Uani   1.00
H346   H     0.94300   0.00465   0.22178   0.06300  Uiso   1.00
C347   C     0.89058   0.00565   0.20723   0.06813  Uani   1.00
H348   H     0.89933   0.00990   0.22110   0.08200  Uiso   1.00
C349   C     0.86472   0.00528   0.20730   0.07560  Uani   1.00
H350   H     0.85602   0.00875   0.22138   0.09100  Uiso   1.00
N351   N     0.96686   0.00400   0.05127   0.03357  Uani   1.00
N352   N     0.77779   0.24837   0.07415   0.03837  Uani   1.00
C353   C     0.94301   0.00620   0.04465   0.04437  Uani   1.00
H354   H     0.93780   0.01135   0.02955   0.05300  Uiso   1.00
C355   C     0.80178   0.24747   0.08108   0.05277  Uani   1.00
H356   H     0.80700   0.24535   0.09678   0.06300  Uiso   1.00
C357   C     0.85943   0.24435   0.08223   0.06813  Uani   1.00
H358   H     0.85068   0.24010   0.09610   0.08200  Uiso   1.00
C359   C     0.88528   0.24472   0.08230   0.07560  Uani   1.00
H360   H     0.89398   0.24125   0.09638   0.09100  Uiso   1.00
N361   N     0.99600   0.21686   0.11377   0.03357  Uani   1.00
N362   N     0.75163   0.02779   0.13665   0.03837  Uani   1.00
C363   C     0.99380   0.19301   0.10715   0.04437  Uani   1.00
H364   H     0.98865   0.18780   0.09205   0.05300  Uiso   1.00
C365   C     0.75253   0.05178   0.14358   0.05277  Uani   1.00
H366   H     0.75465   0.05700   0.15928   0.06300  Uiso   1.00
C367   C     0.75565   0.10943   0.14473   0.06813  Uani   1.00
H368   H     0.75990   0.10068   0.15860   0.08200  Uiso   1.00
C369   C     0.75528   0.13528   0.14480   0.07560  Uani   1.00
H370   H     0.75875   0.14398   0.15888   0.09100  Uiso   1.00
N371   N     0.75400   0.03314   0.23877   0.03357  Uani   1.00
N372   N     0.99838   0.22221   0.01165   0.03837  Uani   1.00
C373   C     0.75620   0.05699   0.23215   0.04437  Uani   1.00
H374   H     0.76135   0.06220   0.21705   0.05300  Uiso   1.00
C375   C     0.99748   0.19823   0.01857   0.05277  Uani   1.00
H376   H     0.99535   0.19300   0.03428   0.06300  Uiso   1.00
C377   C     0.99435   0.14058   0.01973   0.06813  Uani   1.00
H378   H     0.99010   0.14933   0.03360   0.08200  Uiso   1.00
C379   C     0.99473   0.11472   0.01980   0.07560  Uani   1.00
H380   H     0.99125   0.10602   0.03388   0.09100  Uiso   1.00
Co381  Co    0.99721   0.24721   0.09375   0.02543  Uani   1.00
Co382  Co    0.75279   0.00279   0.21875   0.02543  Uani   1.00
Co383  Co    0.75279   0.24721   0.15625   0.02543  Uani   1.00
Co384  Co    0.99721   0.00279   0.03125   0.02543  Uani   1.00
C385   C     0.81790   0.00000   0.06250   0.04747  Uani   1.00
C386   C     0.92678   0.00000   0.06250   0.04137  Uani   1.00
C387   C     0.89888   0.00000   0.06250   0.05083  Uani   1.00
C388   C     0.84598   0.00000   0.06250   0.05433  Uani   1.00
C389   C     0.93210   0.00000   0.18750   0.04747  Uani   1.00
C390   C     0.82322   0.00000   0.18750   0.04137  Uani   1.00
C391   C     0.85113   0.00000   0.18750   0.05083  Uani   1.00
C392   C     0.90403   0.00000   0.18750   0.05433  Uani   1.00
C393   C     0.75000   0.06790   0.12500   0.04747  Uani   1.00
C394   C     0.75000   0.17678   0.12500   0.04137  Uani   1.00
C395   C     0.75000   0.14888   0.12500   0.05083  Uani   1.00
C396   C     0.75000   0.09598   0.12500   0.05433  Uani   1.00
C397   C     0.75000   0.18210   0.00000   0.04747  Uani   1.00
C398   C     0.75000   0.07322   0.00000   0.04137  Uani   1.00
C399   C     0.75000   0.10112   0.00000   0.05083  Uani   1.00
C400   C     0.75000   0.15402   0.00000   0.05433  Uani   1.00
N401   N     0.21686   0.49600   0.07373   0.03357  Uani   1.00
N402   N     0.02778   0.25163   0.05085   0.03837  Uani   1.00
C403   C     0.19301   0.49380   0.08035   0.04437  Uani   1.00
H404   H     0.18780   0.48865   0.09545   0.05300  Uiso   1.00
C405   C     0.05177   0.25253   0.04393   0.05277  Uani   1.00
H406   H     0.05700   0.25465   0.02823   0.06300  Uiso   1.00
C407   C     0.10943   0.25565   0.04278   0.06813  Uani   1.00
H408   H     0.10068   0.25990   0.02890   0.08200  Uiso   1.00
C409   C     0.13528   0.25528   0.04270   0.07560  Uani   1.00
H410   H     0.14398   0.25875   0.02863   0.09100  Uiso   1.00
N411   N     0.03314   0.25400   0.19873   0.03357  Uani   1.00
N412   N     0.22221   0.49837   0.17585   0.03837  Uani   1.00
C413   C     0.05699   0.25620   0.20535   0.04437  Uani   1.00
H414   H     0.06220   0.26135   0.22045   0.05300  Uiso   1.00
C415   C     0.19823   0.49747   0.16893   0.05277  Uani   1.00
H416   H     0.19300   0.49535   0.15323   0.06300  Uiso   1.00
C417   C     0.14057   0.49435   0.16778   0.06813  Uani   1.00
H418   H     0.14932   0.49010   0.15390   0.08200  Uiso   1.00
C419   C     0.11472   0.49472   0.16770   0.07560  Uani   1.00
H420   H     0.10602   0.49125   0.15363   0.09100  Uiso   1.00
N421   N     0.00400   0.46686   0.13623   0.03357  Uani   1.00
N422   N     0.24837   0.27779   0.11335   0.03837  Uani   1.00
C423   C     0.00620   0.44301   0.14285   0.04437  Uani   1.00
H424   H     0.01135   0.43780   0.15795   0.05300  Uiso   1.00
C425   C     0.24748   0.30178   0.10643   0.05277  Uani   1.00
H426   H     0.24535   0.30700   0.09073   0.06300  Uiso   1.00
C427   C     0.24435   0.35943   0.10528   0.06813  Uani   1.00
H428   H     0.24010   0.35068   0.09140   0.08200  Uiso   1.00
C429   C     0.24473   0.38528   0.10520   0.07560  Uani   1.00
H430   H     0.24125   0.39398   0.09113   0.09100  Uiso   1.00
N431   N     0.24600   0.28314   0.01123   0.03357  Uani   1.00
N432   N     0.00163   0.47221   0.23835   0.03837  Uani   1.00
C433   C     0.24380   0.30699   0.01785   0.04437  Uani   1.00
H434   H     0.23865   0.31220   0.03295   0.05300  Uiso   1.00
C435   C     0.00253   0.44823   0.23143   0.05277  Uani   1.00
H436   H     0.00465   0.44300   0.21573   0.06300  Uiso   1.00
C437   C     0.00565   0.39058   0.23028   0.06813  Uani   1.00
H438   H     0.00990   0.39933   0.21640   0.08200  Uiso   1.00
C439   C     0.00528   0.36472   0.23020   0.07560  Uani   1.00
H440   H     0.00875   0.35602   0.21613   0.09100  Uiso   1.00
N441   N     0.03314   0.49600   0.17627   0.03357  Uani   1.00
N442   N     0.22221   0.25163   0.19915   0.03837  Uani   1.00
C443   C     0.05699   0.49380   0.16965   0.04437  Uani   1.00
H444   H     0.06220   0.48865   0.15455   0.05300  Uiso   1.00
C445   C     0.19823   0.25253   0.20608   0.05277  Uani   1.00
H446   H     0.19300   0.25465   0.22178   0.06300  Uiso   1.00
C447   C     0.14057   0.25565   0.20723   0.06813  Uani   1.00
H448   H     0.14932   0.25990   0.22110   0.08200  Uiso   1.00
C449   C     0.11472   0.25528   0.20730   0.07560  Uani   1.00
H450   H     0.10602   0.25875   0.22138   0.09100  Uiso   1.00
N451   N     0.21686   0.25400   0.05127   0.03357  Uani   1.00
N452   N     0.02778   0.49837   0.07415   0.03837  Uani   1.00
C453   C     0.19301   0.25620   0.04465   0.04437  Uani   1.00
H454   H     0.18780   0.26135   0.02955   0.05300  Uiso   1.00
C455   C     0.05177   0.49747   0.08108   0.05277  Uani   1.00
H456   H     0.05700   0.49535   0.09678   0.06300  Uiso   1.00
C457   C     0.10943   0.49435   0.08223   0.06813  Uani   1.00
H458   H     0.10068   0.49010   0.09610   0.08200  Uiso   1.00
C459   C     0.13528   0.49472   0.08230   0.07560  Uani   1.00
H460   H     0.14398   0.49125   0.09638   0.09100  Uiso   1.00
N461   N     0.24600   0.46686   0.11377   0.03357  Uani   1.00
N462   N     0.00163   0.27779   0.13665   0.03837  Uani   1.00
C463   C     0.24380   0.44301   0.10715   0.04437  Uani   1.00
H464   H     0.23865   0.43780   0.09205   0.05300  Uiso   1.00
C465   C     0.00253   0.30178   0.14358   0.05277  Uani   1.00
H466   H     0.00465   0.30700   0.15928   0.06300  Uiso   1.00
C467   C     0.00565   0.35943   0.14473   0.06813  Uani   1.00
H468   H     0.00990   0.35068   0.15860   0.08200  Uiso   1.00
C469   C     0.00528   0.38528   0.14480   0.07560  Uani   1.00
H470   H     0.00875   0.39398   0.15888   0.09100  Uiso   1.00
N471   N     0.00400   0.28314   0.23877   0.03357  Uani   1.00
N472   N     0.24837   0.47221   0.01165   0.03837  Uani   1.00
C473   C     0.00620   0.30699   0.23215   0.04437  Uani   1.00
H474   H     0.01135   0.31220   0.21705   0.05300  Uiso   1.00
C475   C     0.24748   0.44823   0.01857   0.05277  Uani   1.00
H476   H     0.24535   0.44300   0.03428   0.06300  Uiso   1.00
C477   C     0.24435   0.39058   0.01973   0.06813  Uani   1.00
H478   H     0.24010   0.39933   0.03360   0.08200  Uiso   1.00
C479   C     0.24473   0.36472   0.01980   0.07560  Uani   1.00
H480   H     0.24125   0.35602   0.03388   0.09100  Uiso   1.00
Co481  Co    0.24721   0.49721   0.09375   0.02543  Uani   1.00
Co482  Co    0.00279   0.25279   0.21875   0.02543  Uani   1.00
Co483  Co    0.00279   0.49721   0.15625   0.02543  Uani   1.00
Co484  Co    0.24721   0.25279   0.03125   0.02543  Uani   1.00
C485   C     0.06790   0.25000   0.06250   0.04747  Uani   1.00
C486   C     0.17678   0.25000   0.06250   0.04137  Uani   1.00
C487   C     0.14888   0.25000   0.06250   0.05083  Uani   1.00
C488   C     0.09598   0.25000   0.06250   0.05433  Uani   1.00
C489   C     0.18210   0.25000   0.18750   0.04747  Uani   1.00
C490   C     0.07322   0.25000   0.18750   0.04137  Uani   1.00
C491   C     0.10112   0.25000   0.18750   0.05083  Uani   1.00
C492   C     0.15402   0.25000   0.18750   0.05433  Uani   1.00
C493   C     0.00000   0.31790   0.12500   0.04747  Uani   1.00
C494   C     0.00000   0.42678   0.12500   0.04137  Uani   1.00
C495   C     0.00000   0.39888   0.12500   0.05083  Uani   1.00
C496   C     0.00000   0.34598   0.12500   0.05433  Uani   1.00
C497   C     0.00000   0.43210   0.00000   0.04747  Uani   1.00
C498   C     0.00000   0.32322   0.00000   0.04137  Uani   1.00
C499   C     0.00000   0.35112   0.00000   0.05083  Uani   1.00
C500   C     0.00000   0.40402   0.00000   0.05433  Uani   1.00
N501   N     0.46686   0.49600   0.07373   0.03357  Uani   1.00
N502   N     0.27778   0.25163   0.05085   0.03837  Uani   1.00
C503   C     0.44301   0.49380   0.08035   0.04437  Uani   1.00
H504   H     0.43780   0.48865   0.09545   0.05300  Uiso   1.00
C505   C     0.30177   0.25253   0.04393   0.05277  Uani   1.00
H506   H     0.30700   0.25465   0.02823   0.06300  Uiso   1.00
C507   C     0.35943   0.25565   0.04278   0.06813  Uani   1.00
H508   H     0.35068   0.25990   0.02890   0.08200  Uiso   1.00
C509   C     0.38528   0.25528   0.04270   0.07560  Uani   1.00
H510   H     0.39398   0.25875   0.02863   0.09100  Uiso   1.00
N511   N     0.28314   0.25400   0.19873   0.03357  Uani   1.00
N512   N     0.47222   0.49837   0.17585   0.03837  Uani   1.00
C513   C     0.30699   0.25620   0.20535   0.04437  Uani   1.00
H514   H     0.31220   0.26135   0.22045   0.05300  Uiso   1.00
C515   C     0.44822   0.49747   0.16893   0.05277  Uani   1.00
H516   H     0.44300   0.49535   0.15323   0.06300  Uiso   1.00
C517   C     0.39057   0.49435   0.16778   0.06813  Uani   1.00
H518   H     0.39933   0.49010   0.15390   0.08200  Uiso   1.00
C519   C     0.36472   0.49472   0.16770   0.07560  Uani   1.00
H520   H     0.35602   0.49125   0.15363   0.09100  Uiso   1.00
N521   N     0.25400   0.46686   0.13623   0.03357  Uani   1.00
N522   N     0.49838   0.27779   0.11335   0.03837  Uani   1.00
C523   C     0.25620   0.44301   0.14285   0.04437  Uani   1.00
H524   H     0.26135   0.43780   0.15795   0.05300  Uiso   1.00
C525   C     0.49748   0.30178   0.10643   0.05277  Uani   1.00
H526   H     0.49535   0.30700   0.09073   0.06300  Uiso   1.00
C527   C     0.49435   0.35943   0.10528   0.06813  Uani   1.00
H528   H     0.49010   0.35068   0.09140   0.08200  Uiso   1.00
C529   C     0.49473   0.38528   0.10520   0.07560  Uani   1.00
H530   H     0.49125   0.39398   0.09113   0.09100  Uiso   1.00
N531   N     0.49600   0.28314   0.01123   0.03357  Uani   1.00
N532   N     0.25163   0.47221   0.23835   0.03837  Uani   1.00
C533   C     0.49380   0.30699   0.01785   0.04437  Uani   1.00
H534   H     0.48865   0.31220   0.03295   0.05300  Uiso   1.00
C535   C     0.25253   0.44823   0.23143   0.05277  Uani   1.00
H536   H     0.25465   0.44300   0.21573   0.06300  Uiso   1.00
C537   C     0.25565   0.39058   0.23028   0.06813  Uani   1.00
H538   H     0.25990   0.39933   0.21640   0.08200  Uiso   1.00
C539   C     0.25528   0.36472   0.23020   0.07560  Uani   1.00
H540   H     0.25875   0.35602   0.21613   0.09100  Uiso   1.00
N541   N     0.28314   0.49600   0.17627   0.03357  Uani   1.00
N542   N     0.47222   0.25163   0.19915   0.03837  Uani   1.00
C543   C     0.30699   0.49380   0.16965   0.04437  Uani   1.00
H544   H     0.31220   0.48865   0.15455   0.05300  Uiso   1.00
C545   C     0.44822   0.25253   0.20608   0.05277  Uani   1.00
H546   H     0.44300   0.25465   0.22178   0.06300  Uiso   1.00
C547   C     0.39057   0.25565   0.20723   0.06813  Uani   1.00
H548   H     0.39933   0.25990   0.22110   0.08200  Uiso   1.00
C549   C     0.36472   0.25528   0.20730   0.07560  Uani   1.00
H550   H     0.35602   0.25875   0.22138   0.09100  Uiso   1.00
N551   N     0.46686   0.25400   0.05127   0.03357  Uani   1.00
N552   N     0.27778   0.49837   0.07415   0.03837  Uani   1.00
C553   C     0.44301   0.25620   0.04465   0.04437  Uani   1.00
H554   H     0.43780   0.26135   0.02955   0.05300  Uiso   1.00
C555   C     0.30177   0.49747   0.08108   0.05277  Uani   1.00
H556   H     0.30700   0.49535   0.09678   0.06300  Uiso   1.00
C557   C     0.35943   0.49435   0.08223   0.06813  Uani   1.00
H558   H     0.35068   0.49010   0.09610   0.08200  Uiso   1.00
C559   C     0.38528   0.49472   0.08230   0.07560  Uani   1.00
H560   H     0.39398   0.49125   0.09638   0.09100  Uiso   1.00
N561   N     0.49600   0.46686   0.11377   0.03357  Uani   1.00
N562   N     0.25163   0.27779   0.13665   0.03837  Uani   1.00
C563   C     0.49380   0.44301   0.10715   0.04437  Uani   1.00
H564   H     0.48865   0.43780   0.09205   0.05300  Uiso   1.00
C565   C     0.25253   0.30178   0.14358   0.05277  Uani   1.00
H566   H     0.25465   0.30700   0.15928   0.06300  Uiso   1.00
C567   C     0.25565   0.35943   0.14473   0.06813  Uani   1.00
H568   H     0.25990   0.35068   0.15860   0.08200  Uiso   1.00
C569   C     0.25528   0.38528   0.14480   0.07560  Uani   1.00
H570   H     0.25875   0.39398   0.15888   0.09100  Uiso   1.00
N571   N     0.25400   0.28314   0.23877   0.03357  Uani   1.00
N572   N     0.49838   0.47221   0.01165   0.03837  Uani   1.00
C573   C     0.25620   0.30699   0.23215   0.04437  Uani   1.00
H574   H     0.26135   0.31220   0.21705   0.05300  Uiso   1.00
C575   C     0.49748   0.44823   0.01857   0.05277  Uani   1.00
H576   H     0.49535   0.44300   0.03428   0.06300  Uiso   1.00
C577   C     0.49435   0.39058   0.01973   0.06813  Uani   1.00
H578   H     0.49010   0.39933   0.03360   0.08200  Uiso   1.00
C579   C     0.49473   0.36472   0.01980   0.07560  Uani   1.00
H580   H     0.49125   0.35602   0.03388   0.09100  Uiso   1.00
Co581  Co    0.49721   0.49721   0.09375   0.02543  Uani   1.00
Co582  Co    0.25279   0.25279   0.21875   0.02543  Uani   1.00
Co583  Co    0.25279   0.49721   0.15625   0.02543  Uani   1.00
Co584  Co    0.49721   0.25279   0.03125   0.02543  Uani   1.00
C585   C     0.31790   0.25000   0.06250   0.04747  Uani   1.00
C586   C     0.42678   0.25000   0.06250   0.04137  Uani   1.00
C587   C     0.39888   0.25000   0.06250   0.05083  Uani   1.00
C588   C     0.34598   0.25000   0.06250   0.05433  Uani   1.00
C589   C     0.43210   0.25000   0.18750   0.04747  Uani   1.00
C590   C     0.32322   0.25000   0.18750   0.04137  Uani   1.00
C591   C     0.35112   0.25000   0.18750   0.05083  Uani   1.00
C592   C     0.40403   0.25000   0.18750   0.05433  Uani   1.00
C593   C     0.25000   0.31790   0.12500   0.04747  Uani   1.00
C594   C     0.25000   0.42678   0.12500   0.04137  Uani   1.00
C595   C     0.25000   0.39888   0.12500   0.05083  Uani   1.00
C596   C     0.25000   0.34598   0.12500   0.05433  Uani   1.00
C597   C     0.25000   0.43210   0.00000   0.04747  Uani   1.00
C598   C     0.25000   0.32322   0.00000   0.04137  Uani   1.00
C599   C     0.25000   0.35112   0.00000   0.05083  Uani   1.00
C600   C     0.25000   0.40402   0.00000   0.05433  Uani   1.00
N601   N     0.71686   0.49600   0.07373   0.03357  Uani   1.00
N602   N     0.52779   0.25163   0.05085   0.03837  Uani   1.00
C603   C     0.69301   0.49380   0.08035   0.04437  Uani   1.00
H604   H     0.68780   0.48865   0.09545   0.05300  Uiso   1.00
C605   C     0.55178   0.25253   0.04393   0.05277  Uani   1.00
H606   H     0.55700   0.25465   0.02823   0.06300  Uiso   1.00
C607   C     0.60943   0.25565   0.04278   0.06813  Uani   1.00
H608   H     0.60068   0.25990   0.02890   0.08200  Uiso   1.00
C609   C     0.63528   0.25528   0.04270   0.07560  Uani   1.00
H610   H     0.64398   0.25875   0.02863   0.09100  Uiso   1.00
N611   N     0.53314   0.25400   0.19873   0.03357  Uani   1.00
N612   N     0.72222   0.49837   0.17585   0.03837  Uani   1.00
C613   C     0.55699   0.25620   0.20535   0.04437  Uani   1.00
H614   H     0.56220   0.26135   0.22045   0.05300  Uiso   1.00
C615   C     0.69823   0.49747   0.16893   0.05277  Uani   1.00
H616   H     0.69300   0.49535   0.15323   0.06300  Uiso   1.00
C617   C     0.64058   0.49435   0.16778   0.06813  Uani   1.00
H618   H     0.64933   0.49010   0.15390   0.08200  Uiso   1.00
C619   C     0.61473   0.49472   0.16770   0.07560  Uani   1.00
H620   H     0.60603   0.49125   0.15363   0.09100  Uiso   1.00
N621   N     0.50400   0.46686   0.13623   0.03357  Uani   1.00
N622   N     0.74837   0.27779   0.11335   0.03837  Uani   1.00
C623   C     0.50620   0.44301   0.14285   0.04437  Uani   1.00
H624   H     0.51135   0.43780   0.15795   0.05300  Uiso   1.00
C625   C     0.74748   0.30178   0.10643   0.05277  Uani   1.00
H626   H     0.74535   0.30700   0.09073   0.06300  Uiso   1.00
C627   C     0.74435   0.35943   0.10528   0.06813  Uani   1.00
H628   H     0.74010   0.35068   0.09140   0.08200  Uiso   1.00
C629   C     0.74473   0.38528   0.10520   0.07560  Uani   1.00
H630   H     0.74125   0.39398   0.09113   0.09100  Uiso   1.00
N631   N     0.74600   0.28314   0.01123   0.03357  Uani   1.00
N632   N     0.50163   0.47221   0.23835   0.03837  Uani   1.00
C633   C     0.74380   0.30699   0.01785   0.04437  Uani   1.00
H634   H     0.73865   0.31220   0.03295   0.05300  Uiso   1.00
C635   C     0.50253   0.44823   0.23143   0.05277  Uani   1.00
H636   H     0.50465   0.44300   0.21573   0.06300  Uiso   1.00
C637   C     0.50565   0.39058   0.23028   0.06813  Uani   1.00
H638   H     0.50990   0.39933   0.21640   0.08200  Uiso   1.00
C639   C     0.50528   0.36472   0.23020   0.07560  Uani   1.00
H640   H     0.50875   0.35602   0.21613   0.09100  Uiso   1.00
N641   N     0.53314   0.49600   0.17627   0.03357  Uani   1.00
N642   N     0.72222   0.25163   0.19915   0.03837  Uani   1.00
C643   C     0.55699   0.49380   0.16965   0.04437  Uani   1.00
H644   H     0.56220   0.48865   0.15455   0.05300  Uiso   1.00
C645   C     0.69823   0.25253   0.20608   0.05277  Uani   1.00
H646   H     0.69300   0.25465   0.22178   0.06300  Uiso   1.00
C647   C     0.64058   0.25565   0.20723   0.06813  Uani   1.00
H648   H     0.64933   0.25990   0.22110   0.08200  Uiso   1.00
C649   C     0.61473   0.25528   0.20730   0.07560  Uani   1.00
H650   H     0.60603   0.25875   0.22138   0.09100  Uiso   1.00
N651   N     0.71686   0.25400   0.05127   0.03357  Uani   1.00
N652   N     0.52779   0.49837   0.07415   0.03837  Uani   1.00
C653   C     0.69301   0.25620   0.04465   0.04437  Uani   1.00
H654   H     0.68780   0.26135   0.02955   0.05300  Uiso   1.00
C655   C     0.55178   0.49747   0.08108   0.05277  Uani   1.00
H656   H     0.55700   0.49535   0.09678   0.06300  Uiso   1.00
C657   C     0.60943   0.49435   0.08223   0.06813  Uani   1.00
H658   H     0.60068   0.49010   0.09610   0.08200  Uiso   1.00
C659   C     0.63528   0.49472   0.08230   0.07560  Uani   1.00
H660   H     0.64398   0.49125   0.09638   0.09100  Uiso   1.00
N661   N     0.74600   0.46686   0.11377   0.03357  Uani   1.00
N662   N     0.50163   0.27779   0.13665   0.03837  Uani   1.00
C663   C     0.74380   0.44301   0.10715   0.04437  Uani   1.00
H664   H     0.73865   0.43780   0.09205   0.05300  Uiso   1.00
C665   C     0.50253   0.30178   0.14358   0.05277  Uani   1.00
H666   H     0.50465   0.30700   0.15928   0.06300  Uiso   1.00
C667   C     0.50565   0.35943   0.14473   0.06813  Uani   1.00
H668   H     0.50990   0.35068   0.15860   0.08200  Uiso   1.00
C669   C     0.50528   0.38528   0.14480   0.07560  Uani   1.00
H670   H     0.50875   0.39398   0.15888   0.09100  Uiso   1.00
N671   N     0.50400   0.28314   0.23877   0.03357  Uani   1.00
N672   N     0.74837   0.47221   0.01165   0.03837  Uani   1.00
C673   C     0.50620   0.30699   0.23215   0.04437  Uani   1.00
H674   H     0.51135   0.31220   0.21705   0.05300  Uiso   1.00
C675   C     0.74748   0.44823   0.01857   0.05277  Uani   1.00
H676   H     0.74535   0.44300   0.03428   0.06300  Uiso   1.00
C677   C     0.74435   0.39058   0.01973   0.06813  Uani   1.00
H678   H     0.74010   0.39933   0.03360   0.08200  Uiso   1.00
C679   C     0.74473   0.36472   0.01980   0.07560  Uani   1.00
H680   H     0.74125   0.35602   0.03388   0.09100  Uiso   1.00
Co681  Co    0.74721   0.49721   0.09375   0.02543  Uani   1.00
Co682  Co    0.50279   0.25279   0.21875   0.02543  Uani   1.00
Co683  Co    0.50279   0.49721   0.15625   0.02543  Uani   1.00
Co684  Co    0.74721   0.25279   0.03125   0.02543  Uani   1.00
C685   C     0.56790   0.25000   0.06250   0.04747  Uani   1.00
C686   C     0.67678   0.25000   0.06250   0.04137  Uani   1.00
C687   C     0.64888   0.25000   0.06250   0.05083  Uani   1.00
C688   C     0.59598   0.25000   0.06250   0.05433  Uani   1.00
C689   C     0.68210   0.25000   0.18750   0.04747  Uani   1.00
C690   C     0.57322   0.25000   0.18750   0.04137  Uani   1.00
C691   C     0.60112   0.25000   0.18750   0.05083  Uani   1.00
C692   C     0.65402   0.25000   0.18750   0.05433  Uani   1.00
C693   C     0.50000   0.31790   0.12500   0.04747  Uani   1.00
C694   C     0.50000   0.42678   0.12500   0.04137  Uani   1.00
C695   C     0.50000   0.39888   0.12500   0.05083  Uani   1.00
C696   C     0.50000   0.34598   0.12500   0.05433  Uani   1.00
C697   C     0.50000   0.43210   0.00000   0.04747  Uani   1.00
C698   C     0.50000   0.32322   0.00000   0.04137  Uani   1.00
C699   C     0.50000   0.35112   0.00000   0.05083  Uani   1.00
C700   C     0.50000   0.40402   0.00000   0.05433  Uani   1.00
N701   N     0.96686   0.49600   0.07373   0.03357  Uani   1.00
N702   N     0.77779   0.25163   0.05085   0.03837  Uani   1.00
C703   C     0.94301   0.49380   0.08035   0.04437  Uani   1.00
H704   H     0.93780   0.48865   0.09545   0.05300  Uiso   1.00
C705   C     0.80178   0.25253   0.04393   0.05277  Uani   1.00
H706   H     0.80700   0.25465   0.02823   0.06300  Uiso   1.00
C707   C     0.85943   0.25565   0.04278   0.06813  Uani   1.00
H708   H     0.85068   0.25990   0.02890   0.08200  Uiso   1.00
C709   C     0.88528   0.25528   0.04270   0.07560  Uani   1.00
H710   H     0.89398   0.25875   0.02863   0.09100  Uiso   1.00
N711   N     0.78314   0.25400   0.19873   0.03357  Uani   1.00
N712   N     0.97222   0.49837   0.17585   0.03837  Uani   1.00
C713   C     0.80699   0.25620   0.20535   0.04437  Uani   1.00
H714   H     0.81220   0.26135   0.22045   0.05300  Uiso   1.00
C715   C     0.94823   0.49747   0.16893   0.05277  Uani   1.00
H716   H     0.94300   0.49535   0.15323   0.06300  Uiso   1.00
C717   C     0.89058   0.49435   0.16778   0.06813  Uani   1.00
H718   H     0.89933   0.49010   0.15390   0.08200  Uiso   1.00
C719   C     0.86472   0.49472   0.16770   0.07560  Uani   1.00
H720   H     0.85602   0.49125   0.15363   0.09100  Uiso   1.00
N721   N     0.75400   0.46686   0.13623   0.03357  Uani   1.00
N722   N     0.99838   0.27779   0.11335   0.03837  Uani   1.00
C723   C     0.75620   0.44301   0.14285   0.04437  Uani   1.00
H724   H     0.76135   0.43780   0.15795   0.05300  Uiso   1.00
C725   C     0.99748   0.30178   0.10643   0.05277  Uani   1.00
H726   H     0.99535   0.30700   0.09073   0.06300  Uiso   1.00
C727   C     0.99435   0.35943   0.10528   0.06813  Uani   1.00
H728   H     0.99010   0.35068   0.09140   0.08200  Uiso   1.00
C729   C     0.99473   0.38528   0.10520   0.07560  Uani   1.00
H730   H     0.99125   0.39398   0.09113   0.09100  Uiso   1.00
N731   N     0.99600   0.28314   0.01123   0.03357  Uani   1.00
N732   N     0.75163   0.47221   0.23835   0.03837  Uani   1.00
C733   C     0.99380   0.30699   0.01785   0.04437  Uani   1.00
H734   H     0.98865   0.31220   0.03295   0.05300  Uiso   1.00
C735   C     0.75253   0.44823   0.23143   0.05277  Uani   1.00
H736   H     0.75465   0.44300   0.21573   0.06300  Uiso   1.00
C737   C     0.75565   0.39058   0.23028   0.06813  Uani   1.00
H738   H     0.75990   0.39933   0.21640   0.08200  Uiso   1.00
C739   C     0.75528   0.36472   0.23020   0.07560  Uani   1.00
H740   H     0.75875   0.35602   0.21613   0.09100  Uiso   1.00
N741   N     0.78314   0.49600   0.17627   0.03357  Uani   1.00
N742   N     0.97222   0.25163   0.19915   0.03837  Uani   1.00
C743   C     0.80699   0.49380   0.16965   0.04437  Uani   1.00
H744   H     0.81220   0.48865   0.15455   0.05300  Uiso   1.00
C745   C     0.94823   0.25253   0.20608   0.05277  Uani   1.00
H746   H     0.94300   0.25465   0.22178   0.06300  Uiso   1.00
C747   C     0.89058   0.25565   0.20723   0.06813  Uani   1.00
H748   H     0.89933   0.25990   0.22110   0.08200  Uiso   1.00
C749   C     0.86472   0.25528   0.20730   0.07560  Uani   1.00
H750   H     0.85602   0.25875   0.22138   0.09100  Uiso   1.00
N751   N     0.96686   0.25400   0.05127   0.03357  Uani   1.00
N752   N     0.77779   0.49837   0.07415   0.03837  Uani   1.00
C753   C     0.94301   0.25620   0.04465   0.04437  Uani   1.00
H754   H     0.93780   0.26135   0.02955   0.05300  Uiso   1.00
C755   C     0.80178   0.49747   0.08108   0.05277  Uani   1.00
H756   H     0.80700   0.49535   0.09678   0.06300  Uiso   1.00
C757   C     0.85943   0.49435   0.08223   0.06813  Uani   1.00
H758   H     0.85068   0.49010   0.09610   0.08200  Uiso   1.00
C759   C     0.88528   0.49472   0.08230   0.07560  Uani   1.00
H760   H     0.89398   0.49125   0.09638   0.09100  Uiso   1.00
N761   N     0.99600   0.46686   0.11377   0.03357  Uani   1.00
N762   N     0.75163   0.27779   0.13665   0.03837  Uani   1.00
C763   C     0.99380   0.44301   0.10715   0.04437  Uani   1.00
H764   H     0.98865   0.43780   0.09205   0.05300  Uiso   1.00
C765   C     0.75253   0.30178   0.14358   0.05277  Uani   1.00
H766   H     0.75465   0.30700   0.15928   0.06300  Uiso   1.00
C767   C     0.75565   0.35943   0.14473   0.06813  Uani   1.00
H768   H     0.75990   0.35068   0.15860   0.08200  Uiso   1.00
C769   C     0.75528   0.38528   0.14480   0.07560  Uani   1.00
H770   H     0.75875   0.39398   0.15888   0.09100  Uiso   1.00
N771   N     0.75400   0.28314   0.23877   0.03357  Uani   1.00
N772   N     0.99838   0.47221   0.01165   0.03837  Uani   1.00
C773   C     0.75620   0.30699   0.23215   0.04437  Uani   1.00
H774   H     0.76135   0.31220   0.21705   0.05300  Uiso   1.00
C775   C     0.99748   0.44823   0.01857   0.05277  Uani   1.00
H776   H     0.99535   0.44300   0.03428   0.06300  Uiso   1.00
C777   C     0.99435   0.39058   0.01973   0.06813  Uani   1.00
H778   H     0.99010   0.39933   0.03360   0.08200  Uiso   1.00
C779   C     0.99473   0.36472   0.01980   0.07560  Uani   1.00
H780   H     0.99125   0.35602   0.03388   0.09100  Uiso   1.00
Co781  Co    0.99721   0.49721   0.09375   0.02543  Uani   1.00
Co782  Co    0.75279   0.25279   0.21875   0.02543  Uani   1.00
Co783  Co    0.75279   0.49721   0.15625   0.02543  Uani   1.00
Co784  Co    0.99721   0.25279   0.03125   0.02543  Uani   1.00
C785   C     0.81790   0.25000   0.06250   0.04747  Uani   1.00
C786   C     0.92678   0.25000   0.06250   0.04137  Uani   1.00
C787   C     0.89888   0.25000   0.06250   0.05083  Uani   1.00
C788   C     0.84598   0.25000   0.06250   0.05433  Uani   1.00
C789   C     0.93210   0.25000   0.18750   0.04747  Uani   1.00
C790   C     0.82322   0.25000   0.18750   0.04137  Uani   1.00
C791   C     0.85113   0.25000   0.18750   0.05083  Uani   1.00
C792   C     0.90403   0.25000   0.18750   0.05433  Uani   1.00
C793   C     0.75000   0.31790   0.12500   0.04747  Uani   1.00
C794   C     0.75000   0.42678   0.12500   0.04137  Uani   1.00
C795   C     0.75000   0.39888   0.12500   0.05083  Uani   1.00
C796   C     0.75000   0.34598   0.12500   0.05433  Uani   1.00
C797   C     0.75000   0.43210   0.00000   0.04747  Uani   1.00
C798   C     0.75000   0.32322   0.00000   0.04137  Uani   1.00
C799   C     0.75000   0.35112   0.00000   0.05083  Uani   1.00
C800   C     0.75000   0.40402   0.00000   0.05433  Uani   1.00
N801   N     0.21686   0.74600   0.07373   0.03357  Uani   1.00
N802   N     0.02778   0.50163   0.05085   0.03837  Uani   1.00
C803   C     0.19301   0.74380   0.08035   0.04437  Uani   1.00
H804   H     0.18780   0.73865   0.09545   0.05300  Uiso   1.00
C805   C     0.05177   0.50253   0.04393   0.05277  Uani   1.00
H806   H     0.05700   0.50465   0.02823   0.06300  Uiso   1.00
C807   C     0.10943   0.50565   0.04278   0.06813  Uani   1.00
H808   H     0.10068   0.50990   0.02890   0.08200  Uiso   1.00
C809   C     0.13528   0.50528   0.04270   0.07560  Uani   1.00
H810   H     0.14398   0.50875   0.02863   0.09100  Uiso   1.00
N811   N     0.03314   0.50400   0.19873   0.03357  Uani   1.00
N812   N     0.22221   0.74837   0.17585   0.03837  Uani   1.00
C813   C     0.05699   0.50620   0.20535   0.04437  Uani   1.00
H814   H     0.06220   0.51135   0.22045   0.05300  Uiso   1.00
C815   C     0.19823   0.74747   0.16893   0.05277  Uani   1.00
H816   H     0.19300   0.74535   0.15323   0.06300  Uiso   1.00
C817   C     0.14057   0.74435   0.16778   0.06813  Uani   1.00
H818   H     0.14932   0.74010   0.15390   0.08200  Uiso   1.00
C819   C     0.11472   0.74472   0.16770   0.07560  Uani   1.00
H820   H     0.10602   0.74125   0.15363   0.09100  Uiso   1.00
N821   N     0.00400   0.71686   0.13623   0.03357  Uani   1.00
N822   N     0.24837   0.52779   0.11335   0.03837  Uani   1.00
C823   C     0.00620   0.69301   0.14285   0.04437  Uani   1.00
H824   H     0.01135   0.68780   0.15795   0.05300  Uiso   1.00
C825   C     0.24748   0.55178   0.10643   0.05277  Uani   1.00
H826   H     0.24535   0.55700   0.09073   0.06300  Uiso   1.00
C827   C     0.24435   0.60943   0.10528   0.06813  Uani   1.00
H828   H     0.24010   0.60068   0.09140   0.08200  Uiso   1.00
C829   C     0.24473   0.63528   0.10520   0.07560  Uani   1.00
H830   H     0.24125   0.64398   0.09113   0.09100  Uiso   1.00
N831   N     0.24600   0.53314   0.01123   0.03357  Uani   1.00
N832   N     0.00163   0.72221   0.23835   0.03837  Uani   1.00
C833   C     0.24380   0.55699   0.01785   0.04437  Uani   1.00
H834   H     0.23865   0.56220   0.03295   0.05300  Uiso   1.00
C835   C     0.00253   0.69823   0.23143   0.05277  Uani   1.00
H836   H     0.00465   0.69300   0.21573   0.06300  Uiso   1.00
C837   C     0.00565   0.64058   0.23028   0.06813  Uani   1.00
H838   H     0.00990   0.64933   0.21640   0.08200  Uiso   1.00
C839   C     0.00528   0.61472   0.23020   0.07560  Uani   1.00
H840   H     0.00875   0.60602   0.21613   0.09100  Uiso   1.00
N841   N     0.03314   0.74600   0.17627   0.03357  Uani   1.00
N842   N     0.22221   0.50163   0.19915   0.03837  Uani   1.00
C843   C     0.05699   0.74380   0.16965   0.04437  Uani   1.00
H844   H     0.06220   0.73865   0.15455   0.05300  Uiso   1.00
C845   C     0.19823   0.50253   0.20608   0.05277  Uani   1.00
H846   H     0.19300   0.50465   0.22178   0.06300  Uiso   1.00
C847   C     0.14057   0.50565   0.20723   0.06813  Uani   1.00
H848   H     0.14932   0.50990   0.22110   0.08200  Uiso   1.00
C849   C     0.11472   0.50528   0.20730   0.07560  Uani   1.00
H850   H     0.10602   0.50875   0.22138   0.09100  Uiso   1.00
N851   N     0.21686   0.50400   0.05127   0.03357  Uani   1.00
N852   N     0.02778   0.74837   0.07415   0.03837  Uani   1.00
C853   C     0.19301   0.50620   0.04465   0.04437  Uani   1.00
H854   H     0.18780   0.51135   0.02955   0.05300  Uiso   1.00
C855   C     0.05177   0.74747   0.08108   0.05277  Uani   1.00
H856   H     0.05700   0.74535   0.09678   0.06300  Uiso   1.00
C857   C     0.10943   0.74435   0.08223   0.06813  Uani   1.00
H858   H     0.10068   0.74010   0.09610   0.08200  Uiso   1.00
C859   C     0.13528   0.74472   0.08230   0.07560  Uani   1.00
H860   H     0.14398   0.74125   0.09638   0.09100  Uiso   1.00
N861   N     0.24600   0.71686   0.11377   0.03357  Uani   1.00
N862   N     0.00163   0.52779   0.13665   0.03837  Uani   1.00
C863   C     0.24380   0.69301   0.10715   0.04437  Uani   1.00
H864   H     0.23865   0.68780   0.09205   0.05300  Uiso   1.00
C865   C     0.00253   0.55178   0.14358   0.05277  Uani   1.00
H866   H     0.00465   0.55700   0.15928   0.06300  Uiso   1.00
C867   C     0.00565   0.60943   0.14473   0.06813  Uani   1.00
H868   H     0.00990   0.60068   0.15860   0.08200  Uiso   1.00
C869   C     0.00528   0.63528   0.14480   0.07560  Uani   1.00
H870   H     0.00875   0.64398   0.15888   0.09100  Uiso   1.00
N871   N     0.00400   0.53314   0.23877   0.03357  Uani   1.00
N872   N     0.24837   0.72221   0.01165   0.03837  Uani   1.00
C873   C     0.00620   0.55699   0.23215   0.04437  Uani   1.00
H874   H     0.01135   0.56220   0.21705   0.05300  Uiso   1.00
C875   C     0.24748   0.69823   0.01857   0.05277  Uani   1.00
H876   H     0.24535   0.69300   0.03428   0.06300  Uiso   1.00
C877   C     0.24435   0.64058   0.01973   0.06813  Uani   1.00
H878   H     0.24010   0.64933   0.03360   0.08200  Uiso   1.00
C879   C     0.24473   0.61472   0.01980   0.07560  Uani   1.00
H880   H     0.24125   0.60602   0.03388   0.09100  Uiso   1.00
Co881  Co    0.24721   0.74721   0.09375   0.02543  Uani   1.00
Co882  Co    0.00279   0.50279   0.21875   0.02543  Uani   1.00
Co883  Co    0.00279   0.74721   0.15625   0.02543  Uani   1.00
Co884  Co    0.24721   0.50279   0.03125   0.02543  Uani   1.00
C885   C     0.06790   0.50000   0.06250   0.04747  Uani   1.00
C886   C     0.17678   0.50000   0.06250   0.04137  Uani   1.00
C887   C     0.14888   0.50000   0.06250   0.05083  Uani   1.00
C888   C     0.09598   0.50000   0.06250   0.05433  Uani   1.00
C889   C     0.18210   0.50000   0.18750   0.04747  Uani   1.00
C890   C     0.07322   0.50000   0.18750   0.04137  Uani   1.00
C891   C     0.10112   0.50000   0.18750   0.05083  Uani   1.00
C892   C     0.15402   0.50000   0.18750   0.05433  Uani   1.00
C893   C     0.00000   0.56790   0.12500   0.04747  Uani   1.00
C894   C     0.00000   0.67678   0.12500   0.04137  Uani   1.00
C895   C     0.00000   0.64888   0.12500   0.05083  Uani   1.00
C896   C     0.00000   0.59598   0.12500   0.05433  Uani   1.00
C897   C     0.00000   0.68210   0.00000   0.04747  Uani   1.00
C898   C     0.00000   0.57322   0.00000   0.04137  Uani   1.00
C899   C     0.00000   0.60112   0.00000   0.05083  Uani   1.00
C900   C     0.00000   0.65402   0.00000   0.05433  Uani   1.00
N901   N     0.46686   0.74600   0.07373   0.03357  Uani   1.00
N902   N     0.27778   0.50163   0.05085   0.03837  Uani   1.00
C903   C     0.44301   0.74380   0.08035   0.04437  Uani   1.00
H904   H     0.43780   0.73865   0.09545   0.05300  Uiso   1.00
C905   C     0.30177   0.50253   0.04393   0.05277  Uani   1.00
H906   H     0.30700   0.50465   0.02823   0.06300  Uiso   1.00
C907   C     0.35943   0.50565   0.04278   0.06813  Uani   1.00
H908   H     0.35068   0.50990   0.02890   0.08200  Uiso   1.00
C909   C     0.38528   0.50528   0.04270   0.07560  Uani   1.00
H910   H     0.39398   0.50875   0.02863   0.09100  Uiso   1.00
N911   N     0.28314   0.50400   0.19873   0.03357  Uani   1.00
N912   N     0.47222   0.74837   0.17585   0.03837  Uani   1.00
C913   C     0.30699   0.50620   0.20535   0.04437  Uani   1.00
H914   H     0.31220   0.51135   0.22045   0.05300  Uiso   1.00
C915   C     0.44822   0.74747   0.16893   0.05277  Uani   1.00
H916   H     0.44300   0.74535   0.15323   0.06300  Uiso   1.00
C917   C     0.39057   0.74435   0.16778   0.06813  Uani   1.00
H918   H     0.39933   0.74010   0.15390   0.08200  Uiso   1.00
C919   C     0.36472   0.74472   0.16770   0.07560  Uani   1.00
H920   H     0.35602   0.74125   0.15363   0.09100  Uiso   1.00
N921   N     0.25400   0.71686   0.13623   0.03357  Uani   1.00
N922   N     0.49838   0.52779   0.11335   0.03837  Uani   1.00
C923   C     0.25620   0.69301   0.14285   0.04437  Uani   1.00
H924   H     0.26135   0.68780   0.15795   0.05300  Uiso   1.00
C925   C     0.49748   0.55178   0.10643   0.05277  Uani   1.00
H926   H     0.49535   0.55700   0.09073   0.06300  Uiso   1.00
C927   C     0.49435   0.60943   0.10528   0.06813  Uani   1.00
H928   H     0.49010   0.60068   0.09140   0.08200  Uiso   1.00
C929   C     0.49473   0.63528   0.10520   0.07560  Uani   1.00
H930   H     0.49125   0.64398   0.09113   0.09100  Uiso   1.00
N931   N     0.49600   0.53314   0.01123   0.03357  Uani   1.00
N932   N     0.25163   0.72221   0.23835   0.03837  Uani   1.00
C933   C     0.49380   0.55699   0.01785   0.04437  Uani   1.00
H934   H     0.48865   0.56220   0.03295   0.05300  Uiso   1.00
C935   C     0.25253   0.69823   0.23143   0.05277  Uani   1.00
H936   H     0.25465   0.69300   0.21573   0.06300  Uiso   1.00
C937   C     0.25565   0.64058   0.23028   0.06813  Uani   1.00
H938   H     0.25990   0.64933   0.21640   0.08200  Uiso   1.00
C939   C     0.25528   0.61472   0.23020   0.07560  Uani   1.00
H940   H     0.25875   0.60602   0.21613   0.09100  Uiso   1.00
N941   N     0.28314   0.74600   0.17627   0.03357  Uani   1.00
N942   N     0.47222   0.50163   0.19915   0.03837  Uani   1.00
C943   C     0.30699   0.74380   0.16965   0.04437  Uani   1.00
H944   H     0.31220   0.73865   0.15455   0.05300  Uiso   1.00
C945   C     0.44822   0.50253   0.20608   0.05277  Uani   1.00
H946   H     0.44300   0.50465   0.22178   0.06300  Uiso   1.00
C947   C     0.39057   0.50565   0.20723   0.06813  Uani   1.00
H948   H     0.39933   0.50990   0.22110   0.08200  Uiso   1.00
C949   C     0.36472   0.50528   0.20730   0.07560  Uani   1.00
H950   H     0.35602   0.50875   0.22138   0.09100  Uiso   1.00
N951   N     0.46686   0.50400   0.05127   0.03357  Uani   1.00
N952   N     0.27778   0.74837   0.07415   0.03837  Uani   1.00
C953   C     0.44301   0.50620   0.04465   0.04437  Uani   1.00
H954   H     0.43780   0.51135   0.02955   0.05300  Uiso   1.00
C955   C     0.30177   0.74747   0.08108   0.05277  Uani   1.00
H956   H     0.30700   0.74535   0.09678   0.06300  Uiso   1.00
C957   C     0.35943   0.74435   0.08223   0.06813  Uani   1.00
H958   H     0.35068   0.74010   0.09610   0.08200  Uiso   1.00
C959   C     0.38528   0.74472   0.08230   0.07560  Uani   1.00
H960   H     0.39398   0.74125   0.09638   0.09100  Uiso   1.00
N961   N     0.49600   0.71686   0.11377   0.03357  Uani   1.00
N962   N     0.25163   0.52779   0.13665   0.03837  Uani   1.00
C963   C     0.49380   0.69301   0.10715   0.04437  Uani   1.00
H964   H     0.48865   0.68780   0.09205   0.05300  Uiso   1.00
C965   C     0.25253   0.55178   0.14358   0.05277  Uani   1.00
H966   H     0.25465   0.55700   0.15928   0.06300  Uiso   1.00
C967   C     0.25565   0.60943   0.14473   0.06813  Uani   1.00
H968   H     0.25990   0.60068   0.15860   0.08200  Uiso   1.00
C969   C     0.25528   0.63528   0.14480   0.07560  Uani   1.00
H970   H     0.25875   0.64398   0.15888   0.09100  Uiso   1.00
N971   N     0.25400   0.53314   0.23877   0.03357  Uani   1.00
N972   N     0.49838   0.72221   0.01165   0.03837  Uani   1.00
C973   C     0.25620   0.55699   0.23215   0.04437  Uani   1.00
H974   H     0.26135   0.56220   0.21705   0.05300  Uiso   1.00
C975   C     0.49748   0.69823   0.01857   0.05277  Uani   1.00
H976   H     0.49535   0.69300   0.03428   0.06300  Uiso   1.00
C977   C     0.49435   0.64058   0.01973   0.06813  Uani   1.00
H978   H     0.49010   0.64933   0.03360   0.08200  Uiso   1.00
C979   C     0.49473   0.61472   0.01980   0.07560  Uani   1.00
H980   H     0.49125   0.60602   0.03388   0.09100  Uiso   1.00
Co981  Co    0.49721   0.74721   0.09375   0.02543  Uani   1.00
Co982  Co    0.25279   0.50279   0.21875   0.02543  Uani   1.00
Co983  Co    0.25279   0.74721   0.15625   0.02543  Uani   1.00
Co984  Co    0.49721   0.50279   0.03125   0.02543  Uani   1.00
C985   C     0.31790   0.50000   0.06250   0.04747  Uani   1.00
C986   C     0.42678   0.50000   0.06250   0.04137  Uani   1.00
C987   C     0.39888   0.50000   0.06250   0.05083  Uani   1.00
C988   C     0.34598   0.50000   0.06250   0.05433  Uani   1.00
C989   C     0.43210   0.50000   0.18750   0.04747  Uani   1.00
C990   C     0.32322   0.50000   0.18750   0.04137  Uani   1.00
C991   C     0.35112   0.50000   0.18750   0.05083  Uani   1.00
C992   C     0.40403   0.50000   0.18750   0.05433  Uani   1.00
C993   C     0.25000   0.56790   0.12500   0.04747  Uani   1.00
C994   C     0.25000   0.67678   0.12500   0.04137  Uani   1.00
C995   C     0.25000   0.64888   0.12500   0.05083  Uani   1.00
C996   C     0.25000   0.59598   0.12500   0.05433  Uani   1.00
C997   C     0.25000   0.68210   0.00000   0.04747  Uani   1.00
C998   C     0.25000   0.57322   0.00000   0.04137  Uani   1.00
C999   C     0.25000   0.60112   0.00000   0.05083  Uani   1.00
C1000  C     0.25000   0.65402   0.00000   0.05433  Uani   1.00
N1001  N     0.71686   0.74600   0.07373   0.03357  Uani   1.00
N1002  N     0.52779   0.50163   0.05085   0.03837  Uani   1.00
C1003  C     0.69301   0.74380   0.08035   0.04437  Uani   1.00
H1004  H     0.68780   0.73865   0.09545   0.05300  Uiso   1.00
C1005  C     0.55178   0.50253   0.04393   0.05277  Uani   1.00
H1006  H     0.55700   0.50465   0.02823   0.06300  Uiso   1.00
C1007  C     0.60943   0.50565   0.04278   0.06813  Uani   1.00
H1008  H     0.60068   0.50990   0.02890   0.08200  Uiso   1.00
C1009  C     0.63528   0.50528   0.04270   0.07560  Uani   1.00
H1010  H     0.64398   0.50875   0.02863   0.09100  Uiso   1.00
N1011  N     0.53314   0.50400   0.19873   0.03357  Uani   1.00
N1012  N     0.72222   0.74837   0.17585   0.03837  Uani   1.00
C1013  C     0.55699   0.50620   0.20535   0.04437  Uani   1.00
H1014  H     0.56220   0.51135   0.22045   0.05300  Uiso   1.00
C1015  C     0.69823   0.74747   0.16893   0.05277  Uani   1.00
H1016  H     0.69300   0.74535   0.15323   0.06300  Uiso   1.00
C1017  C     0.64058   0.74435   0.16778   0.06813  Uani   1.00
H1018  H     0.64933   0.74010   0.15390   0.08200  Uiso   1.00
C1019  C     0.61473   0.74472   0.16770   0.07560  Uani   1.00
H1020  H     0.60603   0.74125   0.15363   0.09100  Uiso   1.00
N1021  N     0.50400   0.71686   0.13623   0.03357  Uani   1.00
N1022  N     0.74837   0.52779   0.11335   0.03837  Uani   1.00
C1023  C     0.50620   0.69301   0.14285   0.04437  Uani   1.00
H1024  H     0.51135   0.68780   0.15795   0.05300  Uiso   1.00
C1025  C     0.74748   0.55178   0.10643   0.05277  Uani   1.00
H1026  H     0.74535   0.55700   0.09073   0.06300  Uiso   1.00
C1027  C     0.74435   0.60943   0.10528   0.06813  Uani   1.00
H1028  H     0.74010   0.60068   0.09140   0.08200  Uiso   1.00
C1029  C     0.74473   0.63528   0.10520   0.07560  Uani   1.00
H1030  H     0.74125   0.64398   0.09113   0.09100  Uiso   1.00
N1031  N     0.74600   0.53314   0.01123   0.03357  Uani   1.00
N1032  N     0.50163   0.72221   0.23835   0.03837  Uani   1.00
C1033  C     0.74380   0.55699   0.01785   0.04437  Uani   1.00
H1034  H     0.73865   0.56220   0.03295   0.05300  Uiso   1.00
C1035  C     0.50253   0.69823   0.23143   0.05277  Uani   1.00
H1036  H     0.50465   0.69300   0.21573   0.06300  Uiso   1.00
C1037  C     0.50565   0.64058   0.23028   0.06813  Uani   1.00
H1038  H     0.50990   0.64933   0.21640   0.08200  Uiso   1.00
C1039  C     0.50528   0.61472   0.23020   0.07560  Uani   1.00
H1040  H     0.50875   0.60602   0.21613   0.09100  Uiso   1.00
N1041  N     0.53314   0.74600   0.17627   0.03357  Uani   1.00
N1042  N     0.72222   0.50163   0.19915   0.03837  Uani   1.00
C1043  C     0.55699   0.74380   0.16965   0.04437  Uani   1.00
H1044  H     0.56220   0.73865   0.15455   0.05300  Uiso   1.00
C1045  C     0.69823   0.50253   0.20608   0.05277  Uani   1.00
H1046  H     0.69300   0.50465   0.22178   0.06300  Uiso   1.00
C1047  C     0.64058   0.50565   0.20723   0.06813  Uani   1.00
H1048  H     0.64933   0.50990   0.22110   0.08200  Uiso   1.00
C1049  C     0.61473   0.50528   0.20730   0.07560  Uani   1.00
H1050  H     0.60603   0.50875   0.22138   0.09100  Uiso   1.00
N1051  N     0.71686   0.50400   0.05127   0.03357  Uani   1.00
N1052  N     0.52779   0.74837   0.07415   0.03837  Uani   1.00
C1053  C     0.69301   0.50620   0.04465   0.04437  Uani   1.00
H1054  H     0.68780   0.51135   0.02955   0.05300  Uiso   1.00
C1055  C     0.55178   0.74747   0.08108   0.05277  Uani   1.00
H1056  H     0.55700   0.74535   0.09678   0.06300  Uiso   1.00
C1057  C     0.60943   0.74435   0.08223   0.06813  Uani   1.00
H1058  H     0.60068   0.74010   0.09610   0.08200  Uiso   1.00
C1059  C     0.63528   0.74472   0.08230   0.07560  Uani   1.00
H1060  H     0.64398   0.74125   0.09638   0.09100  Uiso   1.00
N1061  N     0.74600   0.71686   0.11377   0.03357  Uani   1.00
N1062  N     0.50163   0.52779   0.13665   0.03837  Uani   1.00
C1063  C     0.74380   0.69301   0.10715   0.04437  Uani   1.00
H1064  H     0.73865   0.68780   0.09205   0.05300  Uiso   1.00
C1065  C     0.50253   0.55178   0.14358   0.05277  Uani   1.00
H1066  H     0.50465   0.55700   0.15928   0.06300  Uiso   1.00
C1067  C     0.50565   0.60943   0.14473   0.06813  Uani   1.00
H1068  H     0.50990   0.60068   0.15860   0.08200  Uiso   1.00
C1069  C     0.50528   0.63528   0.14480   0.07560  Uani   1.00
H1070  H     0.50875   0.64398   0.15888   0.09100  Uiso   1.00
N1071  N     0.50400   0.53314   0.23877   0.03357  Uani   1.00
N1072  N     0.74837   0.72221   0.01165   0.03837  Uani   1.00
C1073  C     0.50620   0.55699   0.23215   0.04437  Uani   1.00
H1074  H     0.51135   0.56220   0.21705   0.05300  Uiso   1.00
C1075  C     0.74748   0.69823   0.01857   0.05277  Uani   1.00
H1076  H     0.74535   0.69300   0.03428   0.06300  Uiso   1.00
C1077  C     0.74435   0.64058   0.01973   0.06813  Uani   1.00
H1078  H     0.74010   0.64933   0.03360   0.08200  Uiso   1.00
C1079  C     0.74473   0.61472   0.01980   0.07560  Uani   1.00
H1080  H     0.74125   0.60602   0.03388   0.09100  Uiso   1.00
Co1081 Co    0.74721   0.74721   0.09375   0.02543  Uani   1.00
Co1082 Co    0.50279   0.50279   0.21875   0.02543  Uani   1.00
Co1083 Co    0.50279   0.74721   0.15625   0.02543  Uani   1.00
Co1084 Co    0.74721   0.50279   0.03125   0.02543  Uani   1.00
C1085  C     0.56790   0.50000   0.06250   0.04747  Uani   1.00
C1086  C     0.67678   0.50000   0.06250   0.04137  Uani   1.00
C1087  C     0.64888   0.50000   0.06250   0.05083  Uani   1.00
C1088  C     0.59598   0.50000   0.06250   0.05433  Uani   1.00
C1089  C     0.68210   0.50000   0.18750   0.04747  Uani   1.00
C1090  C     0.57322   0.50000   0.18750   0.04137  Uani   1.00
C1091  C     0.60112   0.50000   0.18750   0.05083  Uani   1.00
C1092  C     0.65402   0.50000   0.18750   0.05433  Uani   1.00
C1093  C     0.50000   0.56790   0.12500   0.04747  Uani   1.00
C1094  C     0.50000   0.67678   0.12500   0.04137  Uani   1.00
C1095  C     0.50000   0.64888   0.12500   0.05083  Uani   1.00
C1096  C     0.50000   0.59598   0.12500   0.05433  Uani   1.00
C1097  C     0.50000   0.68210   0.00000   0.04747  Uani   1.00
C1098  C     0.50000   0.57322   0.00000   0.04137  Uani   1.00
C1099  C     0.50000   0.60112   0.00000   0.05083  Uani   1.00
C1100  C     0.50000   0.65402   0.00000   0.05433  Uani   1.00
N1101  N     0.96686   0.74600   0.07373   0.03357  Uani   1.00
N1102  N     0.77779   0.50163   0.05085   0.03837  Uani   1.00
C1103  C     0.94301   0.74380   0.08035   0.04437  Uani   1.00
H1104  H     0.93780   0.73865   0.09545   0.05300  Uiso   1.00
C1105  C     0.80178   0.50253   0.04393   0.05277  Uani   1.00
H1106  H     0.80700   0.50465   0.02823   0.06300  Uiso   1.00
C1107  C     0.85943   0.50565   0.04278   0.06813  Uani   1.00
H1108  H     0.85068   0.50990   0.02890   0.08200  Uiso   1.00
C1109  C     0.88528   0.50528   0.04270   0.07560  Uani   1.00
H1110  H     0.89398   0.50875   0.02863   0.09100  Uiso   1.00
N1111  N     0.78314   0.50400   0.19873   0.03357  Uani   1.00
N1112  N     0.97222   0.74837   0.17585   0.03837  Uani   1.00
C1113  C     0.80699   0.50620   0.20535   0.04437  Uani   1.00
H1114  H     0.81220   0.51135   0.22045   0.05300  Uiso   1.00
C1115  C     0.94823   0.74747   0.16893   0.05277  Uani   1.00
H1116  H     0.94300   0.74535   0.15323   0.06300  Uiso   1.00
C1117  C     0.89058   0.74435   0.16778   0.06813  Uani   1.00
H1118  H     0.89933   0.74010   0.15390   0.08200  Uiso   1.00
C1119  C     0.86472   0.74472   0.16770   0.07560  Uani   1.00
H1120  H     0.85602   0.74125   0.15363   0.09100  Uiso   1.00
N1121  N     0.75400   0.71686   0.13623   0.03357  Uani   1.00
N1122  N     0.99838   0.52779   0.11335   0.03837  Uani   1.00
C1123  C     0.75620   0.69301   0.14285   0.04437  Uani   1.00
H1124  H     0.76135   0.68780   0.15795   0.05300  Uiso   1.00
C1125  C     0.99748   0.55178   0.10643   0.05277  Uani   1.00
H1126  H     0.99535   0.55700   0.09073   0.06300  Uiso   1.00
C1127  C     0.99435   0.60943   0.10528   0.06813  Uani   1.00
H1128  H     0.99010   0.60068   0.09140   0.08200  Uiso   1.00
C1129  C     0.99473   0.63528   0.10520   0.07560  Uani   1.00
H1130  H     0.99125   0.64398   0.09113   0.09100  Uiso   1.00
N1131  N     0.99600   0.53314   0.01123   0.03357  Uani   1.00
N1132  N     0.75163   0.72221   0.23835   0.03837  Uani   1.00
C1133  C     0.99380   0.55699   0.01785   0.04437  Uani   1.00
H1134  H     0.98865   0.56220   0.03295   0.05300  Uiso   1.00
C1135  C     0.75253   0.69823   0.23143   0.05277  Uani   1.00
H1136  H     0.75465   0.69300   0.21573   0.06300  Uiso   1.00
C1137  C     0.75565   0.64058   0.23028   0.06813  Uani   1.00
H1138  H     0.75990   0.64933   0.21640   0.08200  Uiso   1.00
C1139  C     0.75528   0.61472   0.23020   0.07560  Uani   1.00
H1140  H     0.75875   0.60602   0.21613   0.09100  Uiso   1.00
N1141  N     0.78314   0.74600   0.17627   0.03357  Uani   1.00
N1142  N     0.97222   0.50163   0.19915   0.03837  Uani   1.00
C1143  C     0.80699   0.74380   0.16965   0.04437  Uani   1.00
H1144  H     0.81220   0.73865   0.15455   0.05300  Uiso   1.00
C1145  C     0.94823   0.50253   0.20608   0.05277  Uani   1.00
H1146  H     0.94300   0.50465   0.22178   0.06300  Uiso   1.00
C1147  C     0.89058   0.50565   0.20723   0.06813  Uani   1.00
H1148  H     0.89933   0.50990   0.22110   0.08200  Uiso   1.00
C1149  C     0.86472   0.50528   0.20730   0.07560  Uani   1.00
H1150  H     0.85602   0.50875   0.22138   0.09100  Uiso   1.00
N1151  N     0.96686   0.50400   0.05127   0.03357  Uani   1.00
N1152  N     0.77779   0.74837   0.07415   0.03837  Uani   1.00
C1153  C     0.94301   0.50620   0.04465   0.04437  Uani   1.00
H1154  H     0.93780   0.51135   0.02955   0.05300  Uiso   1.00
C1155  C     0.80178   0.74747   0.08108   0.05277  Uani   1.00
H1156  H     0.80700   0.74535   0.09678   0.06300  Uiso   1.00
C1157  C     0.85943   0.74435   0.08223   0.06813  Uani   1.00
H1158  H     0.85068   0.74010   0.09610   0.08200  Uiso   1.00
C1159  C     0.88528   0.74472   0.08230   0.07560  Uani   1.00
H1160  H     0.89398   0.74125   0.09638   0.09100  Uiso   1.00
N1161  N     0.99600   0.71686   0.11377   0.03357  Uani   1.00
N1162  N     0.75163   0.52779   0.13665   0.03837  Uani   1.00
C1163  C     0.99380   0.69301   0.10715   0.04437  Uani   1.00
H1164  H     0.98865   0.68780   0.09205   0.05300  Uiso   1.00
C1165  C     0.75253   0.55178   0.14358   0.05277  Uani   1.00
H1166  H     0.75465   0.55700   0.15928   0.06300  Uiso   1.00
C1167  C     0.75565   0.60943   0.14473   0.06813  Uani   1.00
H1168  H     0.75990   0.60068   0.15860   0.08200  Uiso   1.00
C1169  C     0.75528   0.63528   0.14480   0.07560  Uani   1.00
H1170  H     0.75875   0.64398   0.15888   0.09100  Uiso   1.00
N1171  N     0.75400   0.53314   0.23877   0.03357  Uani   1.00
N1172  N     0.99838   0.72221   0.01165   0.03837  Uani   1.00
C1173  C     0.75620   0.55699   0.23215   0.04437  Uani   1.00
H1174  H     0.76135   0.56220   0.21705   0.05300  Uiso   1.00
C1175  C     0.99748   0.69823   0.01857   0.05277  Uani   1.00
H1176  H     0.99535   0.69300   0.03428   0.06300  Uiso   1.00
C1177  C     0.99435   0.64058   0.01973   0.06813  Uani   1.00
H1178  H     0.99010   0.64933   0.03360   0.08200  Uiso   1.00
C1179  C     0.99473   0.61472   0.01980   0.07560  Uani   1.00
H1180  H     0.99125   0.60602   0.03388   0.09100  Uiso   1.00
Co1181 Co    0.99721   0.74721   0.09375   0.02543  Uani   1.00
Co1182 Co    0.75279   0.50279   0.21875   0.02543  Uani   1.00
Co1183 Co    0.75279   0.74721   0.15625   0.02543  Uani   1.00
Co1184 Co    0.99721   0.50279   0.03125   0.02543  Uani   1.00
C1185  C     0.81790   0.50000   0.06250   0.04747  Uani   1.00
C1186  C     0.92678   0.50000   0.06250   0.04137  Uani   1.00
C1187  C     0.89888   0.50000   0.06250   0.05083  Uani   1.00
C1188  C     0.84598   0.50000   0.06250   0.05433  Uani   1.00
C1189  C     0.93210   0.50000   0.18750   0.04747  Uani   1.00
C1190  C     0.82322   0.50000   0.18750   0.04137  Uani   1.00
C1191  C     0.85113   0.50000   0.18750   0.05083  Uani   1.00
C1192  C     0.90403   0.50000   0.18750   0.05433  Uani   1.00
C1193  C     0.75000   0.56790   0.12500   0.04747  Uani   1.00
C1194  C     0.75000   0.67678   0.12500   0.04137  Uani   1.00
C1195  C     0.75000   0.64888   0.12500   0.05083  Uani   1.00
C1196  C     0.75000   0.59598   0.12500   0.05433  Uani   1.00
C1197  C     0.75000   0.68210   0.00000   0.04747  Uani   1.00
C1198  C     0.75000   0.57322   0.00000   0.04137  Uani   1.00
C1199  C     0.75000   0.60112   0.00000   0.05083  Uani   1.00
C1200  C     0.75000   0.65402   0.00000   0.05433  Uani   1.00
N1201  N     0.21686   0.99600   0.07373   0.03357  Uani   1.00
N1202  N     0.02778   0.75163   0.05085   0.03837  Uani   1.00
C1203  C     0.19301   0.99380   0.08035   0.04437  Uani   1.00
H1204  H     0.18780   0.98865   0.09545   0.05300  Uiso   1.00
C1205  C     0.05177   0.75253   0.04393   0.05277  Uani   1.00
H1206  H     0.05700   0.75465   0.02823   0.06300  Uiso   1.00
C1207  C     0.10943   0.75565   0.04278   0.06813  Uani   1.00
H1208  H     0.10068   0.75990   0.02890   0.08200  Uiso   1.00
C1209  C     0.13528   0.75528   0.04270   0.07560  Uani   1.00
H1210  H     0.14398   0.75875   0.02863   0.09100  Uiso   1.00
N1211  N     0.03314   0.75400   0.19873   0.03357  Uani   1.00
N1212  N     0.22221   0.99837   0.17585   0.03837  Uani   1.00
C1213  C     0.05699   0.75620   0.20535   0.04437  Uani   1.00
H1214  H     0.06220   0.76135   0.22045   0.05300  Uiso   1.00
C1215  C     0.19823   0.99747   0.16893   0.05277  Uani   1.00
H1216  H     0.19300   0.99535   0.15323   0.06300  Uiso   1.00
C1217  C     0.14057   0.99435   0.16778   0.06813  Uani   1.00
H1218  H     0.14932   0.99010   0.15390   0.08200  Uiso   1.00
C1219  C     0.11472   0.99473   0.16770   0.07560  Uani   1.00
H1220  H     0.10602   0.99125   0.15363   0.09100  Uiso   1.00
N1221  N     0.00400   0.96686   0.13623   0.03357  Uani   1.00
N1222  N     0.24837   0.77779   0.11335   0.03837  Uani   1.00
C1223  C     0.00620   0.94301   0.14285   0.04437  Uani   1.00
H1224  H     0.01135   0.93780   0.15795   0.05300  Uiso   1.00
C1225  C     0.24748   0.80178   0.10643   0.05277  Uani   1.00
H1226  H     0.24535   0.80700   0.09073   0.06300  Uiso   1.00
C1227  C     0.24435   0.85943   0.10528   0.06813  Uani   1.00
H1228  H     0.24010   0.85068   0.09140   0.08200  Uiso   1.00
C1229  C     0.24473   0.88528   0.10520   0.07560  Uani   1.00
H1230  H     0.24125   0.89398   0.09113   0.09100  Uiso   1.00
N1231  N     0.24600   0.78314   0.01123   0.03357  Uani   1.00
N1232  N     0.00163   0.97221   0.23835   0.03837  Uani   1.00
C1233  C     0.24380   0.80699   0.01785   0.04437  Uani   1.00
H1234  H     0.23865   0.81220   0.03295   0.05300  Uiso   1.00
C1235  C     0.00253   0.94823   0.23143   0.05277  Uani   1.00
H1236  H     0.00465   0.94300   0.21573   0.06300  Uiso   1.00
C1237  C     0.00565   0.89058   0.23028   0.06813  Uani   1.00
H1238  H     0.00990   0.89933   0.21640   0.08200  Uiso   1.00
C1239  C     0.00528   0.86472   0.23020   0.07560  Uani   1.00
H1240  H     0.00875   0.85602   0.21613   0.09100  Uiso   1.00
N1241  N     0.03314   0.99600   0.17627   0.03357  Uani   1.00
N1242  N     0.22221   0.75163   0.19915   0.03837  Uani   1.00
C1243  C     0.05699   0.99380   0.16965   0.04437  Uani   1.00
H1244  H     0.06220   0.98865   0.15455   0.05300  Uiso   1.00
C1245  C     0.19823   0.75253   0.20608   0.05277  Uani   1.00
H1246  H     0.19300   0.75465   0.22178   0.06300  Uiso   1.00
C1247  C     0.14057   0.75565   0.20723   0.06813  Uani   1.00
H1248  H     0.14932   0.75990   0.22110   0.08200  Uiso   1.00
C1249  C     0.11472   0.75528   0.20730   0.07560  Uani   1.00
H1250  H     0.10602   0.75875   0.22138   0.09100  Uiso   1.00
N1251  N     0.21686   0.75400   0.05127   0.03357  Uani   1.00
N1252  N     0.02778   0.99837   0.07415   0.03837  Uani   1.00
C1253  C     0.19301   0.75620   0.04465   0.04437  Uani   1.00
H1254  H     0.18780   0.76135   0.02955   0.05300  Uiso   1.00
C1255  C     0.05177   0.99747   0.08108   0.05277  Uani   1.00
H1256  H     0.05700   0.99535   0.09678   0.06300  Uiso   1.00
C1257  C     0.10943   0.99435   0.08223   0.06813  Uani   1.00
H1258  H     0.10068   0.99010   0.09610   0.08200  Uiso   1.00
C1259  C     0.13528   0.99473   0.08230   0.07560  Uani   1.00
H1260  H     0.14398   0.99125   0.09638   0.09100  Uiso   1.00
N1261  N     0.24600   0.96686   0.11377   0.03357  Uani   1.00
N1262  N     0.00163   0.77779   0.13665   0.03837  Uani   1.00
C1263  C     0.24380   0.94301   0.10715   0.04437  Uani   1.00
H1264  H     0.23865   0.93780   0.09205   0.05300  Uiso   1.00
C1265  C     0.00253   0.80178   0.14358   0.05277  Uani   1.00
H1266  H     0.00465   0.80700   0.15928   0.06300  Uiso   1.00
C1267  C     0.00565   0.85943   0.14473   0.06813  Uani   1.00
H1268  H     0.00990   0.85068   0.15860   0.08200  Uiso   1.00
C1269  C     0.00528   0.88528   0.14480   0.07560  Uani   1.00
H1270  H     0.00875   0.89398   0.15888   0.09100  Uiso   1.00
N1271  N     0.00400   0.78314   0.23877   0.03357  Uani   1.00
N1272  N     0.24837   0.97221   0.01165   0.03837  Uani   1.00
C1273  C     0.00620   0.80699   0.23215   0.04437  Uani   1.00
H1274  H     0.01135   0.81220   0.21705   0.05300  Uiso   1.00
C1275  C     0.24748   0.94823   0.01857   0.05277  Uani   1.00
H1276  H     0.24535   0.94300   0.03428   0.06300  Uiso   1.00
C1277  C     0.24435   0.89058   0.01973   0.06813  Uani   1.00
H1278  H     0.24010   0.89933   0.03360   0.08200  Uiso   1.00
C1279  C     0.24473   0.86472   0.01980   0.07560  Uani   1.00
H1280  H     0.24125   0.85602   0.03388   0.09100  Uiso   1.00
Co1281 Co    0.24721   0.99721   0.09375   0.02543  Uani   1.00
Co1282 Co    0.00279   0.75279   0.21875   0.02543  Uani   1.00
Co1283 Co    0.00279   0.99721   0.15625   0.02543  Uani   1.00
Co1284 Co    0.24721   0.75279   0.03125   0.02543  Uani   1.00
C1285  C     0.06790   0.75000   0.06250   0.04747  Uani   1.00
C1286  C     0.17678   0.75000   0.06250   0.04137  Uani   1.00
C1287  C     0.14888   0.75000   0.06250   0.05083  Uani   1.00
C1288  C     0.09598   0.75000   0.06250   0.05433  Uani   1.00
C1289  C     0.18210   0.75000   0.18750   0.04747  Uani   1.00
C1290  C     0.07322   0.75000   0.18750   0.04137  Uani   1.00
C1291  C     0.10112   0.75000   0.18750   0.05083  Uani   1.00
C1292  C     0.15402   0.75000   0.18750   0.05433  Uani   1.00
C1293  C     0.00000   0.81790   0.12500   0.04747  Uani   1.00
C1294  C     0.00000   0.92678   0.12500   0.04137  Uani   1.00
C1295  C     0.00000   0.89888   0.12500   0.05083  Uani   1.00
C1296  C     0.00000   0.84598   0.12500   0.05433  Uani   1.00
C1297  C     0.00000   0.93210   0.00000   0.04747  Uani   1.00
C1298  C     0.00000   0.82322   0.00000   0.04137  Uani   1.00
C1299  C     0.00000   0.85112   0.00000   0.05083  Uani   1.00
C1300  C     0.00000   0.90402   0.00000   0.05433  Uani   1.00
N1301  N     0.46686   0.99600   0.07373   0.03357  Uani   1.00
N1302  N     0.27778   0.75163   0.05085   0.03837  Uani   1.00
C1303  C     0.44301   0.99380   0.08035   0.04437  Uani   1.00
H1304  H     0.43780   0.98865   0.09545   0.05300  Uiso   1.00
C1305  C     0.30177   0.75253   0.04393   0.05277  Uani   1.00
H1306  H     0.30700   0.75465   0.02823   0.06300  Uiso   1.00
C1307  C     0.35943   0.75565   0.04278   0.06813  Uani   1.00
H1308  H     0.35068   0.75990   0.02890   0.08200  Uiso   1.00
C1309  C     0.38528   0.75528   0.04270   0.07560  Uani   1.00
H1310  H     0.39398   0.75875   0.02863   0.09100  Uiso   1.00
N1311  N     0.28314   0.75400   0.19873   0.03357  Uani   1.00
N1312  N     0.47222   0.99837   0.17585   0.03837  Uani   1.00
C1313  C     0.30699   0.75620   0.20535   0.04437  Uani   1.00
H1314  H     0.31220   0.76135   0.22045   0.05300  Uiso   1.00
C1315  C     0.44822   0.99747   0.16893   0.05277  Uani   1.00
H1316  H     0.44300   0.99535   0.15323   0.06300  Uiso   1.00
C1317  C     0.39057   0.99435   0.16778   0.06813  Uani   1.00
H1318  H     0.39933   0.99010   0.15390   0.08200  Uiso   1.00
C1319  C     0.36472   0.99473   0.16770   0.07560  Uani   1.00
H1320  H     0.35602   0.99125   0.15363   0.09100  Uiso   1.00
N1321  N     0.25400   0.96686   0.13623   0.03357  Uani   1.00
N1322  N     0.49838   0.77779   0.11335   0.03837  Uani   1.00
C1323  C     0.25620   0.94301   0.14285   0.04437  Uani   1.00
H1324  H     0.26135   0.93780   0.15795   0.05300  Uiso   1.00
C1325  C     0.49748   0.80178   0.10643   0.05277  Uani   1.00
H1326  H     0.49535   0.80700   0.09073   0.06300  Uiso   1.00
C1327  C     0.49435   0.85943   0.10528   0.06813  Uani   1.00
H1328  H     0.49010   0.85068   0.09140   0.08200  Uiso   1.00
C1329  C     0.49473   0.88528   0.10520   0.07560  Uani   1.00
H1330  H     0.49125   0.89398   0.09113   0.09100  Uiso   1.00
N1331  N     0.49600   0.78314   0.01123   0.03357  Uani   1.00
N1332  N     0.25163   0.97221   0.23835   0.03837  Uani   1.00
C1333  C     0.49380   0.80699   0.01785   0.04437  Uani   1.00
H1334  H     0.48865   0.81220   0.03295   0.05300  Uiso   1.00
C1335  C     0.25253   0.94823   0.23143   0.05277  Uani   1.00
H1336  H     0.25465   0.94300   0.21573   0.06300  Uiso   1.00
C1337  C     0.25565   0.89058   0.23028   0.06813  Uani   1.00
H1338  H     0.25990   0.89933   0.21640   0.08200  Uiso   1.00
C1339  C     0.25528   0.86472   0.23020   0.07560  Uani   1.00
H1340  H     0.25875   0.85602   0.21613   0.09100  Uiso   1.00
N1341  N     0.28314   0.99600   0.17627   0.03357  Uani   1.00
N1342  N     0.47222   0.75163   0.19915   0.03837  Uani   1.00
C1343  C     0.30699   0.99380   0.16965   0.04437  Uani   1.00
H1344  H     0.31220   0.98865   0.15455   0.05300  Uiso   1.00
C1345  C     0.44822   0.75253   0.20608   0.05277  Uani   1.00
H1346  H     0.44300   0.75465   0.22178   0.06300  Uiso   1.00
C1347  C     0.39057   0.75565   0.20723   0.06813  Uani   1.00
H1348  H     0.39933   0.75990   0.22110   0.08200  Uiso   1.00
C1349  C     0.36472   0.75528   0.20730   0.07560  Uani   1.00
H1350  H     0.35602   0.75875   0.22138   0.09100  Uiso   1.00
N1351  N     0.46686   0.75400   0.05127   0.03357  Uani   1.00
N1352  N     0.27778   0.99837   0.07415   0.03837  Uani   1.00
C1353  C     0.44301   0.75620   0.04465   0.04437  Uani   1.00
H1354  H     0.43780   0.76135   0.02955   0.05300  Uiso   1.00
C1355  C     0.30177   0.99747   0.08108   0.05277  Uani   1.00
H1356  H     0.30700   0.99535   0.09678   0.06300  Uiso   1.00
C1357  C     0.35943   0.99435   0.08223   0.06813  Uani   1.00
H1358  H     0.35068   0.99010   0.09610   0.08200  Uiso   1.00
C1359  C     0.38528   0.99473   0.08230   0.07560  Uani   1.00
H1360  H     0.39398   0.99125   0.09638   0.09100  Uiso   1.00
N1361  N     0.49600   0.96686   0.11377   0.03357  Uani   1.00
N1362  N     0.25163   0.77779   0.13665   0.03837  Uani   1.00
C1363  C     0.49380   0.94301   0.10715   0.04437  Uani   1.00
H1364  H     0.48865   0.93780   0.09205   0.05300  Uiso   1.00
C1365  C     0.25253   0.80178   0.14358   0.05277  Uani   1.00
H1366  H     0.25465   0.80700   0.15928   0.06300  Uiso   1.00
C1367  C     0.25565   0.85943   0.14473   0.06813  Uani   1.00
H1368  H     0.25990   0.85068   0.15860   0.08200  Uiso   1.00
C1369  C     0.25528   0.88528   0.14480   0.07560  Uani   1.00
H1370  H     0.25875   0.89398   0.15888   0.09100  Uiso   1.00
N1371  N     0.25400   0.78314   0.23877   0.03357  Uani   1.00
N1372  N     0.49838   0.97221   0.01165   0.03837  Uani   1.00
C1373  C     0.25620   0.80699   0.23215   0.04437  Uani   1.00
H1374  H     0.26135   0.81220   0.21705   0.05300  Uiso   1.00
C1375  C     0.49748   0.94823   0.01857   0.05277  Uani   1.00
H1376  H     0.49535   0.94300   0.03428   0.06300  Uiso   1.00
C1377  C     0.49435   0.89058   0.01973   0.06813  Uani   1.00
H1378  H     0.49010   0.89933   0.03360   0.08200  Uiso   1.00
C1379  C     0.49473   0.86472   0.01980   0.07560  Uani   1.00
H1380  H     0.49125   0.85602   0.03388   0.09100  Uiso   1.00
Co1381 Co    0.49721   0.99721   0.09375   0.02543  Uani   1.00
Co1382 Co    0.25279   0.75279   0.21875   0.02543  Uani   1.00
Co1383 Co    0.25279   0.99721   0.15625   0.02543  Uani   1.00
Co1384 Co    0.49721   0.75279   0.03125   0.02543  Uani   1.00
C1385  C     0.31790   0.75000   0.06250   0.04747  Uani   1.00
C1386  C     0.42678   0.75000   0.06250   0.04137  Uani   1.00
C1387  C     0.39888   0.75000   0.06250   0.05083  Uani   1.00
C1388  C     0.34598   0.75000   0.06250   0.05433  Uani   1.00
C1389  C     0.43210   0.75000   0.18750   0.04747  Uani   1.00
C1390  C     0.32322   0.75000   0.18750   0.04137  Uani   1.00
C1391  C     0.35112   0.75000   0.18750   0.05083  Uani   1.00
C1392  C     0.40403   0.75000   0.18750   0.05433  Uani   1.00
C1393  C     0.25000   0.81790   0.12500   0.04747  Uani   1.00
C1394  C     0.25000   0.92678   0.12500   0.04137  Uani   1.00
C1395  C     0.25000   0.89888   0.12500   0.05083  Uani   1.00
C1396  C     0.25000   0.84598   0.12500   0.05433  Uani   1.00
C1397  C     0.25000   0.93210   0.00000   0.04747  Uani   1.00
C1398  C     0.25000   0.82322   0.00000   0.04137  Uani   1.00
C1399  C     0.25000   0.85112   0.00000   0.05083  Uani   1.00
C1400  C     0.25000   0.90402   0.00000   0.05433  Uani   1.00
N1401  N     0.71686   0.99600   0.07373   0.03357  Uani   1.00
N1402  N     0.52779   0.75163   0.05085   0.03837  Uani   1.00
C1403  C     0.69301   0.99380   0.08035   0.04437  Uani   1.00
H1404  H     0.68780   0.98865   0.09545   0.05300  Uiso   1.00
C1405  C     0.55178   0.75253   0.04393   0.05277  Uani   1.00
H1406  H     0.55700   0.75465   0.02823   0.06300  Uiso   1.00
C1407  C     0.60943   0.75565   0.04278   0.06813  Uani   1.00
H1408  H     0.60068   0.75990   0.02890   0.08200  Uiso   1.00
C1409  C     0.63528   0.75528   0.04270   0.07560  Uani   1.00
H1410  H     0.64398   0.75875   0.02863   0.09100  Uiso   1.00
N1411  N     0.53314   0.75400   0.19873   0.03357  Uani   1.00
N1412  N     0.72222   0.99837   0.17585   0.03837  Uani   1.00
C1413  C     0.55699   0.75620   0.20535   0.04437  Uani   1.00
H1414  H     0.56220   0.76135   0.22045   0.05300  Uiso   1.00
C1415  C     0.69823   0.99747   0.16893   0.05277  Uani   1.00
H1416  H     0.69300   0.99535   0.15323   0.06300  Uiso   1.00
C1417  C     0.64058   0.99435   0.16778   0.06813  Uani   1.00
H1418  H     0.64933   0.99010   0.15390   0.08200  Uiso   1.00
C1419  C     0.61473   0.99473   0.16770   0.07560  Uani   1.00
H1420  H     0.60603   0.99125   0.15363   0.09100  Uiso   1.00
N1421  N     0.50400   0.96686   0.13623   0.03357  Uani   1.00
N1422  N     0.74837   0.77779   0.11335   0.03837  Uani   1.00
C1423  C     0.50620   0.94301   0.14285   0.04437  Uani   1.00
H1424  H     0.51135   0.93780   0.15795   0.05300  Uiso   1.00
C1425  C     0.74748   0.80178   0.10643   0.05277  Uani   1.00
H1426  H     0.74535   0.80700   0.09073   0.06300  Uiso   1.00
C1427  C     0.74435   0.85943   0.10528   0.06813  Uani   1.00
H1428  H     0.74010   0.85068   0.09140   0.08200  Uiso   1.00
C1429  C     0.74473   0.88528   0.10520   0.07560  Uani   1.00
H1430  H     0.74125   0.89398   0.09113   0.09100  Uiso   1.00
N1431  N     0.74600   0.78314   0.01123   0.03357  Uani   1.00
N1432  N     0.50163   0.97221   0.23835   0.03837  Uani   1.00
C1433  C     0.74380   0.80699   0.01785   0.04437  Uani   1.00
H1434  H     0.73865   0.81220   0.03295   0.05300  Uiso   1.00
C1435  C     0.50253   0.94823   0.23143   0.05277  Uani   1.00
H1436  H     0.50465   0.94300   0.21573   0.06300  Uiso   1.00
C1437  C     0.50565   0.89058   0.23028   0.06813  Uani   1.00
H1438  H     0.50990   0.89933   0.21640   0.08200  Uiso   1.00
C1439  C     0.50528   0.86472   0.23020   0.07560  Uani   1.00
H1440  H     0.50875   0.85602   0.21613   0.09100  Uiso   1.00
N1441  N     0.53314   0.99600   0.17627   0.03357  Uani   1.00
N1442  N     0.72222   0.75163   0.19915   0.03837  Uani   1.00
C1443  C     0.55699   0.99380   0.16965   0.04437  Uani   1.00
H1444  H     0.56220   0.98865   0.15455   0.05300  Uiso   1.00
C1445  C     0.69823   0.75253   0.20608   0.05277  Uani   1.00
H1446  H     0.69300   0.75465   0.22178   0.06300  Uiso   1.00
C1447  C     0.64058   0.75565   0.20723   0.06813  Uani   1.00
H1448  H     0.64933   0.75990   0.22110   0.08200  Uiso   1.00
C1449  C     0.61473   0.75528   0.20730   0.07560  Uani   1.00
H1450  H     0.60603   0.75875   0.22138   0.09100  Uiso   1.00
N1451  N     0.71686   0.75400   0.05127   0.03357  Uani   1.00
N1452  N     0.52779   0.99837   0.07415   0.03837  Uani   1.00
C1453  C     0.69301   0.75620   0.04465   0.04437  Uani   1.00
H1454  H     0.68780   0.76135   0.02955   0.05300  Uiso   1.00
C1455  C     0.55178   0.99747   0.08108   0.05277  Uani   1.00
H1456  H     0.55700   0.99535   0.09678   0.06300  Uiso   1.00
C1457  C     0.60943   0.99435   0.08223   0.06813  Uani   1.00
H1458  H     0.60068   0.99010   0.09610   0.08200  Uiso   1.00
C1459  C     0.63528   0.99473   0.08230   0.07560  Uani   1.00
H1460  H     0.64398   0.99125   0.09638   0.09100  Uiso   1.00
N1461  N     0.74600   0.96686   0.11377   0.03357  Uani   1.00
N1462  N     0.50163   0.77779   0.13665   0.03837  Uani   1.00
C1463  C     0.74380   0.94301   0.10715   0.04437  Uani   1.00
H1464  H     0.73865   0.93780   0.09205   0.05300  Uiso   1.00
C1465  C     0.50253   0.80178   0.14358   0.05277  Uani   1.00
H1466  H     0.50465   0.80700   0.15928   0.06300  Uiso   1.00
C1467  C     0.50565   0.85943   0.14473   0.06813  Uani   1.00
H1468  H     0.50990   0.85068   0.15860   0.08200  Uiso   1.00
C1469  C     0.50528   0.88528   0.14480   0.07560  Uani   1.00
H1470  H     0.50875   0.89398   0.15888   0.09100  Uiso   1.00
N1471  N     0.50400   0.78314   0.23877   0.03357  Uani   1.00
N1472  N     0.74837   0.97221   0.01165   0.03837  Uani   1.00
C1473  C     0.50620   0.80699   0.23215   0.04437  Uani   1.00
H1474  H     0.51135   0.81220   0.21705   0.05300  Uiso   1.00
C1475  C     0.74748   0.94823   0.01857   0.05277  Uani   1.00
H1476  H     0.74535   0.94300   0.03428   0.06300  Uiso   1.00
C1477  C     0.74435   0.89058   0.01973   0.06813  Uani   1.00
H1478  H     0.74010   0.89933   0.03360   0.08200  Uiso   1.00
C1479  C     0.74473   0.86472   0.01980   0.07560  Uani   1.00
H1480  H     0.74125   0.85602   0.03388   0.09100  Uiso   1.00
Co1481 Co    0.74721   0.99721   0.09375   0.02543  Uani   1.00
Co1482 Co    0.50279   0.75279   0.21875   0.02543  Uani   1.00
Co1483 Co    0.50279   0.99721   0.15625   0.02543  Uani   1.00
Co1484 Co    0.74721   0.75279   0.03125   0.02543  Uani   1.00
C1485  C     0.56790   0.75000   0.06250   0.04747  Uani   1.00
C1486  C     0.67678   0.75000   0.06250   0.04137  Uani   1.00
C1487  C     0.64888   0.75000   0.06250   0.05083  Uani   1.00
C1488  C     0.59598   0.75000   0.06250   0.05433  Uani   1.00
C1489  C     0.68210   0.75000   0.18750   0.04747  Uani   1.00
C1490  C     0.57322   0.75000   0.18750   0.04137  Uani   1.00
C1491  C     0.60112   0.75000   0.18750   0.05083  Uani   1.00
C1492  C     0.65402   0.75000   0.18750   0.05433  Uani   1.00
C1493  C     0.50000   0.81790   0.12500   0.04747  Uani   1.00
C1494  C     0.50000   0.92678   0.12500   0.04137  Uani   1.00
C1495  C     0.50000   0.89888   0.12500   0.05083  Uani   1.00
C1496  C     0.50000   0.84598   0.12500   0.05433  Uani   1.00
C1497  C     0.50000   0.93210   0.00000   0.04747  Uani   1.00
C1498  C     0.50000   0.82322   0.00000   0.04137  Uani   1.00
C1499  C     0.50000   0.85112   0.00000   0.05083  Uani   1.00
C1500  C     0.50000   0.90402   0.00000   0.05433  Uani   1.00
N1501  N     0.96686   0.99600   0.07373   0.03357  Uani   1.00
N1502  N     0.77779   0.75163   0.05085   0.03837  Uani   1.00
C1503  C     0.94301   0.99380   0.08035   0.04437  Uani   1.00
H1504  H     0.93780   0.98865   0.09545   0.05300  Uiso   1.00
C1505  C     0.80178   0.75253   0.04393   0.05277  Uani   1.00
H1506  H     0.80700   0.75465   0.02823   0.06300  Uiso   1.00
C1507  C     0.85943   0.75565   0.04278   0.06813  Uani   1.00
H1508  H     0.85068   0.75990   0.02890   0.08200  Uiso   1.00
C1509  C     0.88528   0.75528   0.04270   0.07560  Uani   1.00
H1510  H     0.89398   0.75875   0.02863   0.09100  Uiso   1.00
N1511  N     0.78314   0.75400   0.19873   0.03357  Uani   1.00
N1512  N     0.97222   0.99837   0.17585   0.03837  Uani   1.00
C1513  C     0.80699   0.75620   0.20535   0.04437  Uani   1.00
H1514  H     0.81220   0.76135   0.22045   0.05300  Uiso   1.00
C1515  C     0.94823   0.99747   0.16893   0.05277  Uani   1.00
H1516  H     0.94300   0.99535   0.15323   0.06300  Uiso   1.00
C1517  C     0.89058   0.99435   0.16778   0.06813  Uani   1.00
H1518  H     0.89933   0.99010   0.15390   0.08200  Uiso   1.00
C1519  C     0.86472   0.99473   0.16770   0.07560  Uani   1.00
H1520  H     0.85602   0.99125   0.15363   0.09100  Uiso   1.00
N1521  N     0.75400   0.96686   0.13623   0.03357  Uani   1.00
N1522  N     0.99838   0.77779   0.11335   0.03837  Uani   1.00
C1523  C     0.75620   0.94301   0.14285   0.04437  Uani   1.00
H1524  H     0.76135   0.93780   0.15795   0.05300  Uiso   1.00
C1525  C     0.99748   0.80178   0.10643   0.05277  Uani   1.00
H1526  H     0.99535   0.80700   0.09073   0.06300  Uiso   1.00
C1527  C     0.99435   0.85943   0.10528   0.06813  Uani   1.00
H1528  H     0.99010   0.85068   0.09140   0.08200  Uiso   1.00
C1529  C     0.99473   0.88528   0.10520   0.07560  Uani   1.00
H1530  H     0.99125   0.89398   0.09113   0.09100  Uiso   1.00
N1531  N     0.99600   0.78314   0.01123   0.03357  Uani   1.00
N1532  N     0.75163   0.97221   0.23835   0.03837  Uani   1.00
C1533  C     0.99380   0.80699   0.01785   0.04437  Uani   1.00
H1534  H     0.98865   0.81220   0.03295   0.05300  Uiso   1.00
C1535  C     0.75253   0.94823   0.23143   0.05277  Uani   1.00
H1536  H     0.75465   0.94300   0.21573   0.06300  Uiso   1.00
C1537  C     0.75565   0.89058   0.23028   0.06813  Uani   1.00
H1538  H     0.75990   0.89933   0.21640   0.08200  Uiso   1.00
C1539  C     0.75528   0.86472   0.23020   0.07560  Uani   1.00
H1540  H     0.75875   0.85602   0.21613   0.09100  Uiso   1.00
N1541  N     0.78314   0.99600   0.17627   0.03357  Uani   1.00
N1542  N     0.97222   0.75163   0.19915   0.03837  Uani   1.00
C1543  C     0.80699   0.99380   0.16965   0.04437  Uani   1.00
H1544  H     0.81220   0.98865   0.15455   0.05300  Uiso   1.00
C1545  C     0.94823   0.75253   0.20608   0.05277  Uani   1.00
H1546  H     0.94300   0.75465   0.22178   0.06300  Uiso   1.00
C1547  C     0.89058   0.75565   0.20723   0.06813  Uani   1.00
H1548  H     0.89933   0.75990   0.22110   0.08200  Uiso   1.00
C1549  C     0.86472   0.75528   0.20730   0.07560  Uani   1.00
H1550  H     0.85602   0.75875   0.22138   0.09100  Uiso   1.00
N1551  N     0.96686   0.75400   0.05127   0.03357  Uani   1.00
N1552  N     0.77779   0.99837   0.07415   0.03837  Uani   1.00
C1553  C     0.94301   0.75620   0.04465   0.04437  Uani   1.00
H1554  H     0.93780   0.76135   0.02955   0.05300  Uiso   1.00
C1555  C     0.80178   0.99747   0.08108   0.05277  Uani   1.00
H1556  H     0.80700   0.99535   0.09678   0.06300  Uiso   1.00
C1557  C     0.85943   0.99435   0.08223   0.06813  Uani   1.00
H1558  H     0.85068   0.99010   0.09610   0.08200  Uiso   1.00
C1559  C     0.88528   0.99473   0.08230   0.07560  Uani   1.00
H1560  H     0.89398   0.99125   0.09638   0.09100  Uiso   1.00
N1561  N     0.99600   0.96686   0.11377   0.03357  Uani   1.00
N1562  N     0.75163   0.77779   0.13665   0.03837  Uani   1.00
C1563  C     0.99380   0.94301   0.10715   0.04437  Uani   1.00
H1564  H     0.98865   0.93780   0.09205   0.05300  Uiso   1.00
C1565  C     0.75253   0.80178   0.14358   0.05277  Uani   1.00
H1566  H     0.75465   0.80700   0.15928   0.06300  Uiso   1.00
C1567  C     0.75565   0.85943   0.14473   0.06813  Uani   1.00
H1568  H     0.75990   0.85068   0.15860   0.08200  Uiso   1.00
C1569  C     0.75528   0.88528   0.14480   0.07560  Uani   1.00
H1570  H     0.75875   0.89398   0.15888   0.09100  Uiso   1.00
N1571  N     0.75400   0.78314   0.23877   0.03357  Uani   1.00
N1572  N     0.99838   0.97221   0.01165   0.03837  Uani   1.00
C1573  C     0.75620   0.80699   0.23215   0.04437  Uani   1.00
H1574  H     0.76135   0.81220   0.21705   0.05300  Uiso   1.00
C1575  C     0.99748   0.94823   0.01857   0.05277  Uani   1.00
H1576  H     0.99535   0.94300   0.03428   0.06300  Uiso   1.00
C1577  C     0.99435   0.89058   0.01973   0.06813  Uani   1.00
H1578  H     0.99010   0.89933   0.03360   0.08200  Uiso   1.00
C1579  C     0.99473   0.86472   0.01980   0.07560  Uani   1.00
H1580  H     0.99125   0.85602   0.03388   0.09100  Uiso   1.00
Co1581 Co    0.99721   0.99721   0.09375   0.02543  Uani   1.00
Co1582 Co    0.75279   0.75279   0.21875   0.02543  Uani   1.00
Co1583 Co    0.75279   0.99721   0.15625   0.02543  Uani   1.00
Co1584 Co    0.99721   0.75279   0.03125   0.02543  Uani   1.00
C1585  C     0.81790   0.75000   0.06250   0.04747  Uani   1.00
C1586  C     0.92678   0.75000   0.06250   0.04137  Uani   1.00
C1587  C     0.89888   0.75000   0.06250   0.05083  Uani   1.00
C1588  C     0.84598   0.75000   0.06250   0.05433  Uani   1.00
C1589  C     0.93210   0.75000   0.18750   0.04747  Uani   1.00
C1590  C     0.82322   0.75000   0.18750   0.04137  Uani   1.00
C1591  C     0.85113   0.75000   0.18750   0.05083  Uani   1.00
C1592  C     0.90403   0.75000   0.18750   0.05433  Uani   1.00
C1593  C     0.75000   0.81790   0.12500   0.04747  Uani   1.00
C1594  C     0.75000   0.92678   0.12500   0.04137  Uani   1.00
C1595  C     0.75000   0.89888   0.12500   0.05083  Uani   1.00
C1596  C     0.75000   0.84598   0.12500   0.05433  Uani   1.00
C1597  C     0.75000   0.93210   0.00000   0.04747  Uani   1.00
C1598  C     0.75000   0.82322   0.00000   0.04137  Uani   1.00
C1599  C     0.75000   0.85112   0.00000   0.05083  Uani   1.00
C1600  C     0.75000   0.90402   0.00000   0.05433  Uani   1.00
N1601  N     0.21686   0.24600   0.32373   0.03357  Uani   1.00
N1602  N     0.02778   0.00163   0.30085   0.03837  Uani   1.00
C1603  C     0.19301   0.24380   0.33035   0.04437  Uani   1.00
H1604  H     0.18780   0.23865   0.34545   0.05300  Uiso   1.00
C1605  C     0.05177   0.00253   0.29393   0.05277  Uani   1.00
H1606  H     0.05700   0.00465   0.27823   0.06300  Uiso   1.00
C1607  C     0.10943   0.00565   0.29278   0.06813  Uani   1.00
H1608  H     0.10068   0.00990   0.27890   0.08200  Uiso   1.00
C1609  C     0.13528   0.00528   0.29270   0.07560  Uani   1.00
H1610  H     0.14398   0.00875   0.27863   0.09100  Uiso   1.00
N1611  N     0.03314   0.00400   0.44873   0.03357  Uani   1.00
N1612  N     0.22221   0.24837   0.42585   0.03837  Uani   1.00
C1613  C     0.05699   0.00620   0.45535   0.04437  Uani   1.00
H1614  H     0.06220   0.01135   0.47045   0.05300  Uiso   1.00
C1615  C     0.19823   0.24747   0.41893   0.05277  Uani   1.00
H1616  H     0.19300   0.24535   0.40323   0.06300  Uiso   1.00
C1617  C     0.14057   0.24435   0.41778   0.06813  Uani   1.00
H1618  H     0.14932   0.24010   0.40390   0.08200  Uiso   1.00
C1619  C     0.11472   0.24472   0.41770   0.07560  Uani   1.00
H1620  H     0.10602   0.24125   0.40363   0.09100  Uiso   1.00
N1621  N     0.00400   0.21686   0.38623   0.03357  Uani   1.00
N1622  N     0.24837   0.02779   0.36335   0.03837  Uani   1.00
C1623  C     0.00620   0.19301   0.39285   0.04437  Uani   1.00
H1624  H     0.01135   0.18780   0.40795   0.05300  Uiso   1.00
C1625  C     0.24748   0.05178   0.35643   0.05277  Uani   1.00
H1626  H     0.24535   0.05700   0.34073   0.06300  Uiso   1.00
C1627  C     0.24435   0.10943   0.35528   0.06813  Uani   1.00
H1628  H     0.24010   0.10068   0.34140   0.08200  Uiso   1.00
C1629  C     0.24473   0.13528   0.35520   0.07560  Uani   1.00
H1630  H     0.24125   0.14398   0.34113   0.09100  Uiso   1.00
N1631  N     0.24600   0.03314   0.26123   0.03357  Uani   1.00
N1632  N     0.00163   0.22221   0.48835   0.03837  Uani   1.00
C1633  C     0.24380   0.05699   0.26785   0.04437  Uani   1.00
H1634  H     0.23865   0.06220   0.28295   0.05300  Uiso   1.00
C1635  C     0.00253   0.19823   0.48143   0.05277  Uani   1.00
H1636  H     0.00465   0.19300   0.46573   0.06300  Uiso   1.00
C1637  C     0.00565   0.14058   0.48028   0.06813  Uani   1.00
H1638  H     0.00990   0.14933   0.46640   0.08200  Uiso   1.00
C1639  C     0.00528   0.11472   0.48020   0.07560  Uani   1.00
H1640  H     0.00875   0.10602   0.46613   0.09100  Uiso   1.00
N1641  N     0.03314   0.24600   0.42627   0.03357  Uani   1.00
N1642  N     0.22221   0.00163   0.44915   0.03837  Uani   1.00
C1643  C     0.05699   0.24380   0.41965   0.04437  Uani   1.00
H1644  H     0.06220   0.23865   0.40455   0.05300  Uiso   1.00
C1645  C     0.19823   0.00253   0.45608   0.05277  Uani   1.00
H1646  H     0.19300   0.00465   0.47178   0.06300  Uiso   1.00
C1647  C     0.14057   0.00565   0.45723   0.06813  Uani   1.00
H1648  H     0.14932   0.00990   0.47110   0.08200  Uiso   1.00
C1649  C     0.11472   0.00528   0.45730   0.07560  Uani   1.00
H1650  H     0.10602   0.00875   0.47138   0.09100  Uiso   1.00
N1651  N     0.21686   0.00400   0.30127   0.03357  Uani   1.00
N1652  N     0.02778   0.24837   0.32415   0.03837  Uani   1.00
C1653  C     0.19301   0.00620   0.29465   0.04437  Uani   1.00
H1654  H     0.18780   0.01135   0.27955   0.05300  Uiso   1.00
C1655  C     0.05177   0.24747   0.33108   0.05277  Uani   1.00
H1656  H     0.05700   0.24535   0.34678   0.06300  Uiso   1.00
C1657  C     0.10943   0.24435   0.33223   0.06813  Uani   1.00
H1658  H     0.10068   0.24010   0.34610   0.08200  Uiso   1.00
C1659  C     0.13528   0.24472   0.33230   0.07560  Uani   1.00
H1660  H     0.14398   0.24125   0.34638   0.09100  Uiso   1.00
N1661  N     0.24600   0.21686   0.36377   0.03357  Uani   1.00
N1662  N     0.00163   0.02779   0.38665   0.03837  Uani   1.00
C1663  C     0.24380   0.19301   0.35715   0.04437  Uani   1.00
H1664  H     0.23865   0.18780   0.34205   0.05300  Uiso   1.00
C1665  C     0.00253   0.05178   0.39358   0.05277  Uani   1.00
H1666  H     0.00465   0.05700   0.40928   0.06300  Uiso   1.00
C1667  C     0.00565   0.10943   0.39473   0.06813  Uani   1.00
H1668  H     0.00990   0.10068   0.40860   0.08200  Uiso   1.00
C1669  C     0.00528   0.13528   0.39480   0.07560  Uani   1.00
H1670  H     0.00875   0.14398   0.40888   0.09100  Uiso   1.00
N1671  N     0.00400   0.03314   0.48877   0.03357  Uani   1.00
N1672  N     0.24837   0.22221   0.26165   0.03837  Uani   1.00
C1673  C     0.00620   0.05699   0.48215   0.04437  Uani   1.00
H1674  H     0.01135   0.06220   0.46705   0.05300  Uiso   1.00
C1675  C     0.24748   0.19823   0.26857   0.05277  Uani   1.00
H1676  H     0.24535   0.19300   0.28428   0.06300  Uiso   1.00
C1677  C     0.24435   0.14058   0.26973   0.06813  Uani   1.00
H1678  H     0.24010   0.14933   0.28360   0.08200  Uiso   1.00
C1679  C     0.24473   0.11472   0.26980   0.07560  Uani   1.00
H1680  H     0.24125   0.10602   0.28388   0.09100  Uiso   1.00
Co1681 Co    0.24721   0.24721   0.34375   0.02543  Uani   1.00
Co1682 Co    0.00279   0.00279   0.46875   0.02543  Uani   1.00
Co1683 Co    0.00279   0.24721   0.40625   0.02543  Uani   1.00
Co1684 Co    0.24721   0.00279   0.28125   0.02543  Uani   1.00
C1685  C     0.06790   0.00000   0.31250   0.04747  Uani   1.00
C1686  C     0.17678   0.00000   0.31250   0.04137  Uani   1.00
C1687  C     0.14888   0.00000   0.31250   0.05083  Uani   1.00
C1688  C     0.09598   0.00000   0.31250   0.05433  Uani   1.00
C1689  C     0.18210   0.00000   0.43750   0.04747  Uani   1.00
C1690  C     0.07322   0.00000   0.43750   0.04137  Uani   1.00
C1691  C     0.10112   0.00000   0.43750   0.05083  Uani   1.00
C1692  C     0.15402   0.00000   0.43750   0.05433  Uani   1.00
C1693  C     0.00000   0.06790   0.37500   0.04747  Uani   1.00
C1694  C     0.00000   0.17678   0.37500   0.04137  Uani   1.00
C1695  C     0.00000   0.14888   0.37500   0.05083  Uani   1.00
C1696  C     0.00000   0.09598   0.37500   0.05433  Uani   1.00
C1697  C     0.00000   0.18210   0.25000   0.04747  Uani   1.00
C1698  C     0.00000   0.07322   0.25000   0.04137  Uani   1.00
C1699  C     0.00000   0.10112   0.25000   0.05083  Uani   1.00
C1700  C     0.00000   0.15402   0.25000   0.05433  Uani   1.00
N1701  N     0.46686   0.24600   0.32373   0.03357  Uani   1.00
N1702  N     0.27778   0.00163   0.30085   0.03837  Uani   1.00
C1703  C     0.44301   0.24380   0.33035   0.04437  Uani   1.00
H1704  H     0.43780   0.23865   0.34545   0.05300  Uiso   1.00
C1705  C     0.30177   0.00253   0.29393   0.05277  Uani   1.00
H1706  H     0.30700   0.00465   0.27823   0.06300  Uiso   1.00
C1707  C     0.35943   0.00565   0.29278   0.06813  Uani   1.00
H1708  H     0.35068   0.00990   0.27890   0.08200  Uiso   1.00
C1709  C     0.38528   0.00528   0.29270   0.07560  Uani   1.00
H1710  H     0.39398   0.00875   0.27863   0.09100  Uiso   1.00
N1711  N     0.28314   0.00400   0.44873   0.03357  Uani   1.00
N1712  N     0.47222   0.24837   0.42585   0.03837  Uani   1.00
C1713  C     0.30699   0.00620   0.45535   0.04437  Uani   1.00
H1714  H     0.31220   0.01135   0.47045   0.05300  Uiso   1.00
C1715  C     0.44822   0.24747   0.41893   0.05277  Uani   1.00
H1716  H     0.44300   0.24535   0.40323   0.06300  Uiso   1.00
C1717  C     0.39057   0.24435   0.41778   0.06813  Uani   1.00
H1718  H     0.39933   0.24010   0.40390   0.08200  Uiso   1.00
C1719  C     0.36472   0.24472   0.41770   0.07560  Uani   1.00
H1720  H     0.35602   0.24125   0.40363   0.09100  Uiso   1.00
N1721  N     0.25400   0.21686   0.38623   0.03357  Uani   1.00
N1722  N     0.49838   0.02779   0.36335   0.03837  Uani   1.00
C1723  C     0.25620   0.19301   0.39285   0.04437  Uani   1.00
H1724  H     0.26135   0.18780   0.40795   0.05300  Uiso   1.00
C1725  C     0.49748   0.05178   0.35643   0.05277  Uani   1.00
H1726  H     0.49535   0.05700   0.34073   0.06300  Uiso   1.00
C1727  C     0.49435   0.10943   0.35528   0.06813  Uani   1.00
H1728  H     0.49010   0.10068   0.34140   0.08200  Uiso   1.00
C1729  C     0.49473   0.13528   0.35520   0.07560  Uani   1.00
H1730  H     0.49125   0.14398   0.34113   0.09100  Uiso   1.00
N1731  N     0.49600   0.03314   0.26123   0.03357  Uani   1.00
N1732  N     0.25163   0.22221   0.48835   0.03837  Uani   1.00
C1733  C     0.49380   0.05699   0.26785   0.04437  Uani   1.00
H1734  H     0.48865   0.06220   0.28295   0.05300  Uiso   1.00
C1735  C     0.25253   0.19823   0.48143   0.05277  Uani   1.00
H1736  H     0.25465   0.19300   0.46573   0.06300  Uiso   1.00
C1737  C     0.25565   0.14058   0.48028   0.06813  Uani   1.00
H1738  H     0.25990   0.14933   0.46640   0.08200  Uiso   1.00
C1739  C     0.25528   0.11472   0.48020   0.07560  Uani   1.00
H1740  H     0.25875   0.10602   0.46613   0.09100  Uiso   1.00
N1741  N     0.28314   0.24600   0.42627   0.03357  Uani   1.00
N1742  N     0.47222   0.00163   0.44915   0.03837  Uani   1.00
C1743  C     0.30699   0.24380   0.41965   0.04437  Uani   1.00
H1744  H     0.31220   0.23865   0.40455   0.05300  Uiso   1.00
C1745  C     0.44822   0.00253   0.45608   0.05277  Uani   1.00
H1746  H     0.44300   0.00465   0.47178   0.06300  Uiso   1.00
C1747  C     0.39057   0.00565   0.45723   0.06813  Uani   1.00
H1748  H     0.39933   0.00990   0.47110   0.08200  Uiso   1.00
C1749  C     0.36472   0.00528   0.45730   0.07560  Uani   1.00
H1750  H     0.35602   0.00875   0.47138   0.09100  Uiso   1.00
N1751  N     0.46686   0.00400   0.30127   0.03357  Uani   1.00
N1752  N     0.27778   0.24837   0.32415   0.03837  Uani   1.00
C1753  C     0.44301   0.00620   0.29465   0.04437  Uani   1.00
H1754  H     0.43780   0.01135   0.27955   0.05300  Uiso   1.00
C1755  C     0.30177   0.24747   0.33108   0.05277  Uani   1.00
H1756  H     0.30700   0.24535   0.34678   0.06300  Uiso   1.00
C1757  C     0.35943   0.24435   0.33223   0.06813  Uani   1.00
H1758  H     0.35068   0.24010   0.34610   0.08200  Uiso   1.00
C1759  C     0.38528   0.24472   0.33230   0.07560  Uani   1.00
H1760  H     0.39398   0.24125   0.34638   0.09100  Uiso   1.00
N1761  N     0.49600   0.21686   0.36377   0.03357  Uani   1.00
N1762  N     0.25163   0.02779   0.38665   0.03837  Uani   1.00
C1763  C     0.49380   0.19301   0.35715   0.04437  Uani   1.00
H1764  H     0.48865   0.18780   0.34205   0.05300  Uiso   1.00
C1765  C     0.25253   0.05178   0.39358   0.05277  Uani   1.00
H1766  H     0.25465   0.05700   0.40928   0.06300  Uiso   1.00
C1767  C     0.25565   0.10943   0.39473   0.06813  Uani   1.00
H1768  H     0.25990   0.10068   0.40860   0.08200  Uiso   1.00
C1769  C     0.25528   0.13528   0.39480   0.07560  Uani   1.00
H1770  H     0.25875   0.14398   0.40888   0.09100  Uiso   1.00
N1771  N     0.25400   0.03314   0.48877   0.03357  Uani   1.00
N1772  N     0.49838   0.22221   0.26165   0.03837  Uani   1.00
C1773  C     0.25620   0.05699   0.48215   0.04437  Uani   1.00
H1774  H     0.26135   0.06220   0.46705   0.05300  Uiso   1.00
C1775  C     0.49748   0.19823   0.26857   0.05277  Uani   1.00
H1776  H     0.49535   0.19300   0.28428   0.06300  Uiso   1.00
C1777  C     0.49435   0.14058   0.26973   0.06813  Uani   1.00
H1778  H     0.49010   0.14933   0.28360   0.08200  Uiso   1.00
C1779  C     0.49473   0.11472   0.26980   0.07560  Uani   1.00
H1780  H     0.49125   0.10602   0.28388   0.09100  Uiso   1.00
Co1781 Co    0.49721   0.24721   0.34375   0.02543  Uani   1.00
Co1782 Co    0.25279   0.00279   0.46875   0.02543  Uani   1.00
Co1783 Co    0.25279   0.24721   0.40625   0.02543  Uani   1.00
Co1784 Co    0.49721   0.00279   0.28125   0.02543  Uani   1.00
C1785  C     0.31790   0.00000   0.31250   0.04747  Uani   1.00
C1786  C     0.42678   0.00000   0.31250   0.04137  Uani   1.00
C1787  C     0.39888   0.00000   0.31250   0.05083  Uani   1.00
C1788  C     0.34598   0.00000   0.31250   0.05433  Uani   1.00
C1789  C     0.43210   0.00000   0.43750   0.04747  Uani   1.00
C1790  C     0.32322   0.00000   0.43750   0.04137  Uani   1.00
C1791  C     0.35112   0.00000   0.43750   0.05083  Uani   1.00
C1792  C     0.40403   0.00000   0.43750   0.05433  Uani   1.00
C1793  C     0.25000   0.06790   0.37500   0.04747  Uani   1.00
C1794  C     0.25000   0.17678   0.37500   0.04137  Uani   1.00
C1795  C     0.25000   0.14888   0.37500   0.05083  Uani   1.00
C1796  C     0.25000   0.09598   0.37500   0.05433  Uani   1.00
C1797  C     0.25000   0.18210   0.25000   0.04747  Uani   1.00
C1798  C     0.25000   0.07322   0.25000   0.04137  Uani   1.00
C1799  C     0.25000   0.10112   0.25000   0.05083  Uani   1.00
C1800  C     0.25000   0.15402   0.25000   0.05433  Uani   1.00
N1801  N     0.71686   0.24600   0.32373   0.03357  Uani   1.00
N1802  N     0.52779   0.00163   0.30085   0.03837  Uani   1.00
C1803  C     0.69301   0.24380   0.33035   0.04437  Uani   1.00
H1804  H     0.68780   0.23865   0.34545   0.05300  Uiso   1.00
C1805  C     0.55178   0.00253   0.29393   0.05277  Uani   1.00
H1806  H     0.55700   0.00465   0.27823   0.06300  Uiso   1.00
C1807  C     0.60943   0.00565   0.29278   0.06813  Uani   1.00
H1808  H     0.60068   0.00990   0.27890   0.08200  Uiso   1.00
C1809  C     0.63528   0.00528   0.29270   0.07560  Uani   1.00
H1810  H     0.64398   0.00875   0.27863   0.09100  Uiso   1.00
N1811  N     0.53314   0.00400   0.44873   0.03357  Uani   1.00
N1812  N     0.72222   0.24837   0.42585   0.03837  Uani   1.00
C1813  C     0.55699   0.00620   0.45535   0.04437  Uani   1.00
H1814  H     0.56220   0.01135   0.47045   0.05300  Uiso   1.00
C1815  C     0.69823   0.24747   0.41893   0.05277  Uani   1.00
H1816  H     0.69300   0.24535   0.40323   0.06300  Uiso   1.00
C1817  C     0.64058   0.24435   0.41778   0.06813  Uani   1.00
H1818  H     0.64933   0.24010   0.40390   0.08200  Uiso   1.00
C1819  C     0.61473   0.24472   0.41770   0.07560  Uani   1.00
H1820  H     0.60603   0.24125   0.40363   0.09100  Uiso   1.00
N1821  N     0.50400   0.21686   0.38623   0.03357  Uani   1.00
N1822  N     0.74837   0.02779   0.36335   0.03837  Uani   1.00
C1823  C     0.50620   0.19301   0.39285   0.04437  Uani   1.00
H1824  H     0.51135   0.18780   0.40795   0.05300  Uiso   1.00
C1825  C     0.74748   0.05178   0.35643   0.05277  Uani   1.00
H1826  H     0.74535   0.05700   0.34073   0.06300  Uiso   1.00
C1827  C     0.74435   0.10943   0.35528   0.06813  Uani   1.00
H1828  H     0.74010   0.10068   0.34140   0.08200  Uiso   1.00
C1829  C     0.74473   0.13528   0.35520   0.07560  Uani   1.00
H1830  H     0.74125   0.14398   0.34113   0.09100  Uiso   1.00
N1831  N     0.74600   0.03314   0.26123   0.03357  Uani   1.00
N1832  N     0.50163   0.22221   0.48835   0.03837  Uani   1.00
C1833  C     0.74380   0.05699   0.26785   0.04437  Uani   1.00
H1834  H     0.73865   0.06220   0.28295   0.05300  Uiso   1.00
C1835  C     0.50253   0.19823   0.48143   0.05277  Uani   1.00
H1836  H     0.50465   0.19300   0.46573   0.06300  Uiso   1.00
C1837  C     0.50565   0.14058   0.48028   0.06813  Uani   1.00
H1838  H     0.50990   0.14933   0.46640   0.08200  Uiso   1.00
C1839  C     0.50528   0.11472   0.48020   0.07560  Uani   1.00
H1840  H     0.50875   0.10602   0.46613   0.09100  Uiso   1.00
N1841  N     0.53314   0.24600   0.42627   0.03357  Uani   1.00
N1842  N     0.72222   0.00163   0.44915   0.03837  Uani   1.00
C1843  C     0.55699   0.24380   0.41965   0.04437  Uani   1.00
H1844  H     0.56220   0.23865   0.40455   0.05300  Uiso   1.00
C1845  C     0.69823   0.00253   0.45608   0.05277  Uani   1.00
H1846  H     0.69300   0.00465   0.47178   0.06300  Uiso   1.00
C1847  C     0.64058   0.00565   0.45723   0.06813  Uani   1.00
H1848  H     0.64933   0.00990   0.47110   0.08200  Uiso   1.00
C1849  C     0.61473   0.00528   0.45730   0.07560  Uani   1.00
H1850  H     0.60603   0.00875   0.47138   0.09100  Uiso   1.00
N1851  N     0.71686   0.00400   0.30127   0.03357  Uani   1.00
N1852  N     0.52779   0.24837   0.32415   0.03837  Uani   1.00
C1853  C     0.69301   0.00620   0.29465   0.04437  Uani   1.00
H1854  H     0.68780   0.01135   0.27955   0.05300  Uiso   1.00
C1855  C     0.55178   0.24747   0.33108   0.05277  Uani   1.00
H1856  H     0.55700   0.24535   0.34678   0.06300  Uiso   1.00
C1857  C     0.60943   0.24435   0.33223   0.06813  Uani   1.00
H1858  H     0.60068   0.24010   0.34610   0.08200  Uiso   1.00
C1859  C     0.63528   0.24472   0.33230   0.07560  Uani   1.00
H1860  H     0.64398   0.24125   0.34638   0.09100  Uiso   1.00
N1861  N     0.74600   0.21686   0.36377   0.03357  Uani   1.00
N1862  N     0.50163   0.02779   0.38665   0.03837  Uani   1.00
C1863  C     0.74380   0.19301   0.35715   0.04437  Uani   1.00
H1864  H     0.73865   0.18780   0.34205   0.05300  Uiso   1.00
C1865  C     0.50253   0.05178   0.39358   0.05277  Uani   1.00
H1866  H     0.50465   0.05700   0.40928   0.06300  Uiso   1.00
C1867  C     0.50565   0.10943   0.39473   0.06813  Uani   1.00
H1868  H     0.50990   0.10068   0.40860   0.08200  Uiso   1.00
C1869  C     0.50528   0.13528   0.39480   0.07560  Uani   1.00
H1870  H     0.50875   0.14398   0.40888   0.09100  Uiso   1.00
N1871  N     0.50400   0.03314   0.48877   0.03357  Uani   1.00
N1872  N     0.74837   0.22221   0.26165   0.03837  Uani   1.00
C1873  C     0.50620   0.05699   0.48215   0.04437  Uani   1.00
H1874  H     0.51135   0.06220   0.46705   0.05300  Uiso   1.00
C1875  C     0.74748   0.19823   0.26857   0.05277  Uani   1.00
H1876  H     0.74535   0.19300   0.28428   0.06300  Uiso   1.00
C1877  C     0.74435   0.14058   0.26973   0.06813  Uani   1.00
H1878  H     0.74010   0.14933   0.28360   0.08200  Uiso   1.00
C1879  C     0.74473   0.11472   0.26980   0.07560  Uani   1.00
H1880  H     0.74125   0.10602   0.28388   0.09100  Uiso   1.00
Co1881 Co    0.74721   0.24721   0.34375   0.02543  Uani   1.00
Co1882 Co    0.50279   0.00279   0.46875   0.02543  Uani   1.00
Co1883 Co    0.50279   0.24721   0.40625   0.02543  Uani   1.00
Co1884 Co    0.74721   0.00279   0.28125   0.02543  Uani   1.00
C1885  C     0.56790   0.00000   0.31250   0.04747  Uani   1.00
C1886  C     0.67678   0.00000   0.31250   0.04137  Uani   1.00
C1887  C     0.64888   0.00000   0.31250   0.05083  Uani   1.00
C1888  C     0.59598   0.00000   0.31250   0.05433  Uani   1.00
C1889  C     0.68210   0.00000   0.43750   0.04747  Uani   1.00
C1890  C     0.57322   0.00000   0.43750   0.04137  Uani   1.00
C1891  C     0.60112   0.00000   0.43750   0.05083  Uani   1.00
C1892  C     0.65402   0.00000   0.43750   0.05433  Uani   1.00
C1893  C     0.50000   0.06790   0.37500   0.04747  Uani   1.00
C1894  C     0.50000   0.17678   0.37500   0.04137  Uani   1.00
C1895  C     0.50000   0.14888   0.37500   0.05083  Uani   1.00
C1896  C     0.50000   0.09598   0.37500   0.05433  Uani   1.00
C1897  C     0.50000   0.18210   0.25000   0.04747  Uani   1.00
C1898  C     0.50000   0.07322   0.25000   0.04137  Uani   1.00
C1899  C     0.50000   0.10112   0.25000   0.05083  Uani   1.00
C1900  C     0.50000   0.15402   0.25000   0.05433  Uani   1.00
N1901  N     0.96686   0.24600   0.32373   0.03357  Uani   1.00
N1902  N     0.77779   0.00163   0.30085   0.03837  Uani   1.00
C1903  C     0.94301   0.24380   0.33035   0.04437  Uani   1.00
H1904  H     0.93780   0.23865   0.34545   0.05300  Uiso   1.00
C1905  C     0.80178   0.00253   0.29393   0.05277  Uani   1.00
H1906  H     0.80700   0.00465   0.27823   0.06300  Uiso   1.00
C1907  C     0.85943   0.00565   0.29278   0.06813  Uani   1.00
H1908  H     0.85068   0.00990   0.27890   0.08200  Uiso   1.00
C1909  C     0.88528   0.00528   0.29270   0.07560  Uani   1.00
H1910  H     0.89398   0.00875   0.27863   0.09100  Uiso   1.00
N1911  N     0.78314   0.00400   0.44873   0.03357  Uani   1.00
N1912  N     0.97222   0.24837   0.42585   0.03837  Uani   1.00
C1913  C     0.80699   0.00620   0.45535   0.04437  Uani   1.00
H1914  H     0.81220   0.01135   0.47045   0.05300  Uiso   1.00
C1915  C     0.94823   0.24747   0.41893   0.05277  Uani   1.00
H1916  H     0.94300   0.24535   0.40323   0.06300  Uiso   1.00
C1917  C     0.89058   0.24435   0.41778   0.06813  Uani   1.00
H1918  H     0.89933   0.24010   0.40390   0.08200  Uiso   1.00
C1919  C     0.86472   0.24472   0.41770   0.07560  Uani   1.00
H1920  H     0.85602   0.24125   0.40363   0.09100  Uiso   1.00
N1921  N     0.75400   0.21686   0.38623   0.03357  Uani   1.00
N1922  N     0.99838   0.02779   0.36335   0.03837  Uani   1.00
C1923  C     0.75620   0.19301   0.39285   0.04437  Uani   1.00
H1924  H     0.76135   0.18780   0.40795   0.05300  Uiso   1.00
C1925  C     0.99748   0.05178   0.35643   0.05277  Uani   1.00
H1926  H     0.99535   0.05700   0.34073   0.06300  Uiso   1.00
C1927  C     0.99435   0.10943   0.35528   0.06813  Uani   1.00
H1928  H     0.99010   0.10068   0.34140   0.08200  Uiso   1.00
C1929  C     0.99473   0.13528   0.35520   0.07560  Uani   1.00
H1930  H     0.99125   0.14398   0.34113   0.09100  Uiso   1.00
N1931  N     0.99600   0.03314   0.26123   0.03357  Uani   1.00
N1932  N     0.75163   0.22221   0.48835   0.03837  Uani   1.00
C1933  C     0.99380   0.05699   0.26785   0.04437  Uani   1.00
H1934  H     0.98865   0.06220   0.28295   0.05300  Uiso   1.00
C1935  C     0.75253   0.19823   0.48143   0.05277  Uani   1.00
H1936  H     0.75465   0.19300   0.46573   0.06300  Uiso   1.00
C1937  C     0.75565   0.14058   0.48028   0.06813  Uani   1.00
H1938  H     0.75990   0.14933   0.46640   0.08200  Uiso   1.00
C1939  C     0.75528   0.11472   0.48020   0.07560  Uani   1.00
H1940  H     0.75875   0.10602   0.46613   0.09100  Uiso   1.00
N1941  N     0.78314   0.24600   0.42627   0.03357  Uani   1.00
N1942  N     0.97222   0.00163   0.44915   0.03837  Uani   1.00
C1943  C     0.80699   0.24380   0.41965   0.04437  Uani   1.00
H1944  H     0.81220   0.23865   0.40455   0.05300  Uiso   1.00
C1945  C     0.94823   0.00253   0.45608   0.05277  Uani   1.00
H1946  H     0.94300   0.00465   0.47178   0.06300  Uiso   1.00
C1947  C     0.89058   0.00565   0.45723   0.06813  Uani   1.00
H1948  H     0.89933   0.00990   0.47110   0.08200  Uiso   1.00
C1949  C     0.86472   0.00528   0.45730   0.07560  Uani   1.00
H1950  H     0.85602   0.00875   0.47138   0.09100  Uiso   1.00
N1951  N     0.96686   0.00400   0.30127   0.03357  Uani   1.00
N1952  N     0.77779   0.24837   0.32415   0.03837  Uani   1.00
C1953  C     0.94301   0.00620   0.29465   0.04437  Uani   1.00
H1954  H     0.93780   0.01135   0.27955   0.05300  Uiso   1.00
C1955  C     0.80178   0.24747   0.33108   0.05277  Uani   1.00
H1956  H     0.80700   0.24535   0.34678   0.06300  Uiso   1.00
C1957  C     0.85943   0.24435   0.33223   0.06813  Uani   1.00
H1958  H     0.85068   0.24010   0.34610   0.08200  Uiso   1.00
C1959  C     0.88528   0.24472   0.33230   0.07560  Uani   1.00
H1960  H     0.89398   0.24125   0.34638   0.09100  Uiso   1.00
N1961  N     0.99600   0.21686   0.36377   0.03357  Uani   1.00
N1962  N     0.75163   0.02779   0.38665   0.03837  Uani   1.00
C1963  C     0.99380   0.19301   0.35715   0.04437  Uani   1.00
H1964  H     0.98865   0.18780   0.34205   0.05300  Uiso   1.00
C1965  C     0.75253   0.05178   0.39358   0.05277  Uani   1.00
H1966  H     0.75465   0.05700   0.40928   0.06300  Uiso   1.00
C1967  C     0.75565   0.10943   0.39473   0.06813  Uani   1.00
H1968  H     0.75990   0.10068   0.40860   0.08200  Uiso   1.00
C1969  C     0.75528   0.13528   0.39480   0.07560  Uani   1.00
H1970  H     0.75875   0.14398   0.40888   0.09100  Uiso   1.00
N1971  N     0.75400   0.03314   0.48877   0.03357  Uani   1.00
N1972  N     0.99838   0.22221   0.26165   0.03837  Uani   1.00
C1973  C     0.75620   0.05699   0.48215   0.04437  Uani   1.00
H1974  H     0.76135   0.06220   0.46705   0.05300  Uiso   1.00
C1975  C     0.99748   0.19823   0.26857   0.05277  Uani   1.00
H1976  H     0.99535   0.19300   0.28428   0.06300  Uiso   1.00
C1977  C     0.99435   0.14058   0.26973   0.06813  Uani   1.00
H1978  H     0.99010   0.14933   0.28360   0.08200  Uiso   1.00
C1979  C     0.99473   0.11472   0.26980   0.07560  Uani   1.00
H1980  H     0.99125   0.10602   0.28388   0.09100  Uiso   1.00
Co1981 Co    0.99721   0.24721   0.34375   0.02543  Uani   1.00
Co1982 Co    0.75279   0.00279   0.46875   0.02543  Uani   1.00
Co1983 Co    0.75279   0.24721   0.40625   0.02543  Uani   1.00
Co1984 Co    0.99721   0.00279   0.28125   0.02543  Uani   1.00
C1985  C     0.81790   0.00000   0.31250   0.04747  Uani   1.00
C1986  C     0.92678   0.00000   0.31250   0.04137  Uani   1.00
C1987  C     0.89888   0.00000   0.31250   0.05083  Uani   1.00
C1988  C     0.84598   0.00000   0.31250   0.05433  Uani   1.00
C1989  C     0.93210   0.00000   0.43750   0.04747  Uani   1.00
C1990  C     0.82322   0.00000   0.43750   0.04137  Uani   1.00
C1991  C     0.85113   0.00000   0.43750   0.05083  Uani   1.00
C1992  C     0.90403   0.00000   0.43750   0.05433  Uani   1.00
C1993  C     0.75000   0.06790   0.37500   0.04747  Uani   1.00
C1994  C     0.75000   0.17678   0.37500   0.04137  Uani   1.00
C1995  C     0.75000   0.14888   0.37500   0.05083  Uani   1.00
C1996  C     0.75000   0.09598   0.37500   0.05433  Uani   1.00
C1997  C     0.75000   0.18210   0.25000   0.04747  Uani   1.00
C1998  C     0.75000   0.07322   0.25000   0.04137  Uani   1.00
C1999  C     0.75000   0.10112   0.25000   0.05083  Uani   1.00
C2000  C     0.75000   0.15402   0.25000   0.05433  Uani   1.00
N2001  N     0.21686   0.49600   0.32373   0.03357  Uani   1.00
N2002  N     0.02778   0.25163   0.30085   0.03837  Uani   1.00
C2003  C     0.19301   0.49380   0.33035   0.04437  Uani   1.00
H2004  H     0.18780   0.48865   0.34545   0.05300  Uiso   1.00
C2005  C     0.05177   0.25253   0.29393   0.05277  Uani   1.00
H2006  H     0.05700   0.25465   0.27823   0.06300  Uiso   1.00
C2007  C     0.10943   0.25565   0.29278   0.06813  Uani   1.00
H2008  H     0.10068   0.25990   0.27890   0.08200  Uiso   1.00
C2009  C     0.13528   0.25528   0.29270   0.07560  Uani   1.00
H2010  H     0.14398   0.25875   0.27863   0.09100  Uiso   1.00
N2011  N     0.03314   0.25400   0.44873   0.03357  Uani   1.00
N2012  N     0.22221   0.49837   0.42585   0.03837  Uani   1.00
C2013  C     0.05699   0.25620   0.45535   0.04437  Uani   1.00
H2014  H     0.06220   0.26135   0.47045   0.05300  Uiso   1.00
C2015  C     0.19823   0.49747   0.41893   0.05277  Uani   1.00
H2016  H     0.19300   0.49535   0.40323   0.06300  Uiso   1.00
C2017  C     0.14057   0.49435   0.41778   0.06813  Uani   1.00
H2018  H     0.14932   0.49010   0.40390   0.08200  Uiso   1.00
C2019  C     0.11472   0.49472   0.41770   0.07560  Uani   1.00
H2020  H     0.10602   0.49125   0.40363   0.09100  Uiso   1.00
N2021  N     0.00400   0.46686   0.38623   0.03357  Uani   1.00
N2022  N     0.24837   0.27779   0.36335   0.03837  Uani   1.00
C2023  C     0.00620   0.44301   0.39285   0.04437  Uani   1.00
H2024  H     0.01135   0.43780   0.40795   0.05300  Uiso   1.00
C2025  C     0.24748   0.30178   0.35643   0.05277  Uani   1.00
H2026  H     0.24535   0.30700   0.34073   0.06300  Uiso   1.00
C2027  C     0.24435   0.35943   0.35528   0.06813  Uani   1.00
H2028  H     0.24010   0.35068   0.34140   0.08200  Uiso   1.00
C2029  C     0.24473   0.38528   0.35520   0.07560  Uani   1.00
H2030  H     0.24125   0.39398   0.34113   0.09100  Uiso   1.00
N2031  N     0.24600   0.28314   0.26123   0.03357  Uani   1.00
N2032  N     0.00163   0.47221   0.48835   0.03837  Uani   1.00
C2033  C     0.24380   0.30699   0.26785   0.04437  Uani   1.00
H2034  H     0.23865   0.31220   0.28295   0.05300  Uiso   1.00
C2035  C     0.00253   0.44823   0.48143   0.05277  Uani   1.00
H2036  H     0.00465   0.44300   0.46573   0.06300  Uiso   1.00
C2037  C     0.00565   0.39058   0.48028   0.06813  Uani   1.00
H2038  H     0.00990   0.39933   0.46640   0.08200  Uiso   1.00
C2039  C     0.00528   0.36472   0.48020   0.07560  Uani   1.00
H2040  H     0.00875   0.35602   0.46613   0.09100  Uiso   1.00
N2041  N     0.03314   0.49600   0.42627   0.03357  Uani   1.00
N2042  N     0.22221   0.25163   0.44915   0.03837  Uani   1.00
C2043  C     0.05699   0.49380   0.41965   0.04437  Uani   1.00
H2044  H     0.06220   0.48865   0.40455   0.05300  Uiso   1.00
C2045  C     0.19823   0.25253   0.45608   0.05277  Uani   1.00
H2046  H     0.19300   0.25465   0.47178   0.06300  Uiso   1.00
C2047  C     0.14057   0.25565   0.45723   0.06813  Uani   1.00
H2048  H     0.14932   0.25990   0.47110   0.08200  Uiso   1.00
C2049  C     0.11472   0.25528   0.45730   0.07560  Uani   1.00
H2050  H     0.10602   0.25875   0.47138   0.09100  Uiso   1.00
N2051  N     0.21686   0.25400   0.30127   0.03357  Uani   1.00
N2052  N     0.02778   0.49837   0.32415   0.03837  Uani   1.00
C2053  C     0.19301   0.25620   0.29465   0.04437  Uani   1.00
H2054  H     0.18780   0.26135   0.27955   0.05300  Uiso   1.00
C2055  C     0.05177   0.49747   0.33108   0.05277  Uani   1.00
H2056  H     0.05700   0.49535   0.34678   0.06300  Uiso   1.00
C2057  C     0.10943   0.49435   0.33223   0.06813  Uani   1.00
H2058  H     0.10068   0.49010   0.34610   0.08200  Uiso   1.00
C2059  C     0.13528   0.49472   0.33230   0.07560  Uani   1.00
H2060  H     0.14398   0.49125   0.34638   0.09100  Uiso   1.00
N2061  N     0.24600   0.46686   0.36377   0.03357  Uani   1.00
N2062  N     0.00163   0.27779   0.38665   0.03837  Uani   1.00
C2063  C     0.24380   0.44301   0.35715   0.04437  Uani   1.00
H2064  H     0.23865   0.43780   0.34205   0.05300  Uiso   1.00
C2065  C     0.00253   0.30178   0.39358   0.05277  Uani   1.00
H2066  H     0.00465   0.30700   0.40928   0.06300  Uiso   1.00
C2067  C     0.00565   0.35943   0.39473   0.06813  Uani   1.00
H2068  H     0.00990   0.35068   0.40860   0.08200  Uiso   1.00
C2069  C     0.00528   0.38528   0.39480   0.07560  Uani   1.00
H2070  H     0.00875   0.39398   0.40888   0.09100  Uiso   1.00
N2071  N     0.00400   0.28314   0.48877   0.03357  Uani   1.00
N2072  N     0.24837   0.47221   0.26165   0.03837  Uani   1.00
C2073  C     0.00620   0.30699   0.48215   0.04437  Uani   1.00
H2074  H     0.01135   0.31220   0.46705   0.05300  Uiso   1.00
C2075  C     0.24748   0.44823   0.26857   0.05277  Uani   1.00
H2076  H     0.24535   0.44300   0.28428   0.06300  Uiso   1.00
C2077  C     0.24435   0.39058   0.26973   0.06813  Uani   1.00
H2078  H     0.24010   0.39933   0.28360   0.08200  Uiso   1.00
C2079  C     0.24473   0.36472   0.26980   0.07560  Uani   1.00
H2080  H     0.24125   0.35602   0.28388   0.09100  Uiso   1.00
Co2081 Co    0.24721   0.49721   0.34375   0.02543  Uani   1.00
Co2082 Co    0.00279   0.25279   0.46875   0.02543  Uani   1.00
Co2083 Co    0.00279   0.49721   0.40625   0.02543  Uani   1.00
Co2084 Co    0.24721   0.25279   0.28125   0.02543  Uani   1.00
C2085  C     0.06790   0.25000   0.31250   0.04747  Uani   1.00
C2086  C     0.17678   0.25000   0.31250   0.04137  Uani   1.00
C2087  C     0.14888   0.25000   0.31250   0.05083  Uani   1.00
C2088  C     0.09598   0.25000   0.31250   0.05433  Uani   1.00
C2089  C     0.18210   0.25000   0.43750   0.04747  Uani   1.00
C2090  C     0.07322   0.25000   0.43750   0.04137  Uani   1.00
C2091  C     0.10112   0.25000   0.43750   0.05083  Uani   1.00
C2092  C     0.15402   0.25000   0.43750   0.05433  Uani   1.00
C2093  C     0.00000   0.31790   0.37500   0.04747  Uani   1.00
C2094  C     0.00000   0.42678   0.37500   0.04137  Uani   1.00
C2095  C     0.00000   0.39888   0.37500   0.05083  Uani   1.00
C2096  C     0.00000   0.34598   0.37500   0.05433  Uani   1.00
C2097  C     0.00000   0.43210   0.25000   0.04747  Uani   1.00
C2098  C     0.00000   0.32322   0.25000   0.04137  Uani   1.00
C2099  C     0.00000   0.35112   0.25000   0.05083  Uani   1.00
C2100  C     0.00000   0.40402   0.25000   0.05433  Uani   1.00
N2101  N     0.46686   0.49600   0.32373   0.03357  Uani   1.00
N2102  N     0.27778   0.25163   0.30085   0.03837  Uani   1.00
C2103  C     0.44301   0.49380   0.33035   0.04437  Uani   1.00
H2104  H     0.43780   0.48865   0.34545   0.05300  Uiso   1.00
C2105  C     0.30177   0.25253   0.29393   0.05277  Uani   1.00
H2106  H     0.30700   0.25465   0.27823   0.06300  Uiso   1.00
C2107  C     0.35943   0.25565   0.29278   0.06813  Uani   1.00
H2108  H     0.35068   0.25990   0.27890   0.08200  Uiso   1.00
C2109  C     0.38528   0.25528   0.29270   0.07560  Uani   1.00
H2110  H     0.39398   0.25875   0.27863   0.09100  Uiso   1.00
N2111  N     0.28314   0.25400   0.44873   0.03357  Uani   1.00
N2112  N     0.47222   0.49837   0.42585   0.03837  Uani   1.00
C2113  C     0.30699   0.25620   0.45535   0.04437  Uani   1.00
H2114  H     0.31220   0.26135   0.47045   0.05300  Uiso   1.00
C2115  C     0.44822   0.49747   0.41893   0.05277  Uani   1.00
H2116  H     0.44300   0.49535   0.40323   0.06300  Uiso   1.00
C2117  C     0.39057   0.49435   0.41778   0.06813  Uani   1.00
H2118  H     0.39933   0.49010   0.40390   0.08200  Uiso   1.00
C2119  C     0.36472   0.49472   0.41770   0.07560  Uani   1.00
H2120  H     0.35602   0.49125   0.40363   0.09100  Uiso   1.00
N2121  N     0.25400   0.46686   0.38623   0.03357  Uani   1.00
N2122  N     0.49838   0.27779   0.36335   0.03837  Uani   1.00
C2123  C     0.25620   0.44301   0.39285   0.04437  Uani   1.00
H2124  H     0.26135   0.43780   0.40795   0.05300  Uiso   1.00
C2125  C     0.49748   0.30178   0.35643   0.05277  Uani   1.00
H2126  H     0.49535   0.30700   0.34073   0.06300  Uiso   1.00
C2127  C     0.49435   0.35943   0.35528   0.06813  Uani   1.00
H2128  H     0.49010   0.35068   0.34140   0.08200  Uiso   1.00
C2129  C     0.49473   0.38528   0.35520   0.07560  Uani   1.00
H2130  H     0.49125   0.39398   0.34113   0.09100  Uiso   1.00
N2131  N     0.49600   0.28314   0.26123   0.03357  Uani   1.00
N2132  N     0.25163   0.47221   0.48835   0.03837  Uani   1.00
C2133  C     0.49380   0.30699   0.26785   0.04437  Uani   1.00
H2134  H     0.48865   0.31220   0.28295   0.05300  Uiso   1.00
C2135  C     0.25253   0.44823   0.48143   0.05277  Uani   1.00
H2136  H     0.25465   0.44300   0.46573   0.06300  Uiso   1.00
C2137  C     0.25565   0.39058   0.48028   0.06813  Uani   1.00
H2138  H     0.25990   0.39933   0.46640   0.08200  Uiso   1.00
C2139  C     0.25528   0.36472   0.48020   0.07560  Uani   1.00
H2140  H     0.25875   0.35602   0.46613   0.09100  Uiso   1.00
N2141  N     0.28314   0.49600   0.42627   0.03357  Uani   1.00
N2142  N     0.47222   0.25163   0.44915   0.03837  Uani   1.00
C2143  C     0.30699   0.49380   0.41965   0.04437  Uani   1.00
H2144  H     0.31220   0.48865   0.40455   0.05300  Uiso   1.00
C2145  C     0.44822   0.25253   0.45608   0.05277  Uani   1.00
H2146  H     0.44300   0.25465   0.47178   0.06300  Uiso   1.00
C2147  C     0.39057   0.25565   0.45723   0.06813  Uani   1.00
H2148  H     0.39933   0.25990   0.47110   0.08200  Uiso   1.00
C2149  C     0.36472   0.25528   0.45730   0.07560  Uani   1.00
H2150  H     0.35602   0.25875   0.47138   0.09100  Uiso   1.00
N2151  N     0.46686   0.25400   0.30127   0.03357  Uani   1.00
N2152  N     0.27778   0.49837   0.32415   0.03837  Uani   1.00
C2153  C     0.44301   0.25620   0.29465   0.04437  Uani   1.00
H2154  H     0.43780   0.26135   0.27955   0.05300  Uiso   1.00
C2155  C     0.30177   0.49747   0.33108   0.05277  Uani   1.00
H2156  H     0.30700   0.49535   0.34678   0.06300  Uiso   1.00
C2157  C     0.35943   0.49435   0.33223   0.06813  Uani   1.00
H2158  H     0.35068   0.49010   0.34610   0.08200  Uiso   1.00
C2159  C     0.38528   0.49472   0.33230   0.07560  Uani   1.00
H2160  H     0.39398   0.49125   0.34638   0.09100  Uiso   1.00
N2161  N     0.49600   0.46686   0.36377   0.03357  Uani   1.00
N2162  N     0.25163   0.27779   0.38665   0.03837  Uani   1.00
C2163  C     0.49380   0.44301   0.35715   0.04437  Uani   1.00
H2164  H     0.48865   0.43780   0.34205   0.05300  Uiso   1.00
C2165  C     0.25253   0.30178   0.39358   0.05277  Uani   1.00
H2166  H     0.25465   0.30700   0.40928   0.06300  Uiso   1.00
C2167  C     0.25565   0.35943   0.39473   0.06813  Uani   1.00
H2168  H     0.25990   0.35068   0.40860   0.08200  Uiso   1.00
C2169  C     0.25528   0.38528   0.39480   0.07560  Uani   1.00
H2170  H     0.25875   0.39398   0.40888   0.09100  Uiso   1.00
N2171  N     0.25400   0.28314   0.48877   0.03357  Uani   1.00
N2172  N     0.49838   0.47221   0.26165   0.03837  Uani   1.00
C2173  C     0.25620   0.30699   0.48215   0.04437  Uani   1.00
H2174  H     0.26135   0.31220   0.46705   0.05300  Uiso   1.00
C2175  C     0.49748   0.44823   0.26857   0.05277  Uani   1.00
H2176  H     0.49535   0.44300   0.28428   0.06300  Uiso   1.00
C2177  C     0.49435   0.39058   0.26973   0.06813  Uani   1.00
H2178  H     0.49010   0.39933   0.28360   0.08200  Uiso   1.00
C2179  C     0.49473   0.36472   0.26980   0.07560  Uani   1.00
H2180  H     0.49125   0.35602   0.28388   0.09100  Uiso   1.00
Co2181 Co    0.49721   0.49721   0.34375   0.02543  Uani   1.00
Co2182 Co    0.25279   0.25279   0.46875   0.02543  Uani   1.00
Co2183 Co    0.25279   0.49721   0.40625   0.02543  Uani   1.00
Co2184 Co    0.49721   0.25279   0.28125   0.02543  Uani   1.00
C2185  C     0.31790   0.25000   0.31250   0.04747  Uani   1.00
C2186  C     0.42678   0.25000   0.31250   0.04137  Uani   1.00
C2187  C     0.39888   0.25000   0.31250   0.05083  Uani   1.00
C2188  C     0.34598   0.25000   0.31250   0.05433  Uani   1.00
C2189  C     0.43210   0.25000   0.43750   0.04747  Uani   1.00
C2190  C     0.32322   0.25000   0.43750   0.04137  Uani   1.00
C2191  C     0.35112   0.25000   0.43750   0.05083  Uani   1.00
C2192  C     0.40403   0.25000   0.43750   0.05433  Uani   1.00
C2193  C     0.25000   0.31790   0.37500   0.04747  Uani   1.00
C2194  C     0.25000   0.42678   0.37500   0.04137  Uani   1.00
C2195  C     0.25000   0.39888   0.37500   0.05083  Uani   1.00
C2196  C     0.25000   0.34598   0.37500   0.05433  Uani   1.00
C2197  C     0.25000   0.43210   0.25000   0.04747  Uani   1.00
C2198  C     0.25000   0.32322   0.25000   0.04137  Uani   1.00
C2199  C     0.25000   0.35112   0.25000   0.05083  Uani   1.00
C2200  C     0.25000   0.40402   0.25000   0.05433  Uani   1.00
N2201  N     0.71686   0.49600   0.32373   0.03357  Uani   1.00
N2202  N     0.52779   0.25163   0.30085   0.03837  Uani   1.00
C2203  C     0.69301   0.49380   0.33035   0.04437  Uani   1.00
H2204  H     0.68780   0.48865   0.34545   0.05300  Uiso   1.00
C2205  C     0.55178   0.25253   0.29393   0.05277  Uani   1.00
H2206  H     0.55700   0.25465   0.27823   0.06300  Uiso   1.00
C2207  C     0.60943   0.25565   0.29278   0.06813  Uani   1.00
H2208  H     0.60068   0.25990   0.27890   0.08200  Uiso   1.00
C2209  C     0.63528   0.25528   0.29270   0.07560  Uani   1.00
H2210  H     0.64398   0.25875   0.27863   0.09100  Uiso   1.00
N2211  N     0.53314   0.25400   0.44873   0.03357  Uani   1.00
N2212  N     0.72222   0.49837   0.42585   0.03837  Uani   1.00
C2213  C     0.55699   0.25620   0.45535   0.04437  Uani   1.00
H2214  H     0.56220   0.26135   0.47045   0.05300  Uiso   1.00
C2215  C     0.69823   0.49747   0.41893   0.05277  Uani   1.00
H2216  H     0.69300   0.49535   0.40323   0.06300  Uiso   1.00
C2217  C     0.64058   0.49435   0.41778   0.06813  Uani   1.00
H2218  H     0.64933   0.49010   0.40390   0.08200  Uiso   1.00
C2219  C     0.61473   0.49472   0.41770   0.07560  Uani   1.00
H2220  H     0.60603   0.49125   0.40363   0.09100  Uiso   1.00
N2221  N     0.50400   0.46686   0.38623   0.03357  Uani   1.00
N2222  N     0.74837   0.27779   0.36335   0.03837  Uani   1.00
C2223  C     0.50620   0.44301   0.39285   0.04437  Uani   1.00
H2224  H     0.51135   0.43780   0.40795   0.05300  Uiso   1.00
C2225  C     0.74748   0.30178   0.35643   0.05277  Uani   1.00
H2226  H     0.74535   0.30700   0.34073   0.06300  Uiso   1.00
C2227  C     0.74435   0.35943   0.35528   0.06813  Uani   1.00
H2228  H     0.74010   0.35068   0.34140   0.08200  Uiso   1.00
C2229  C     0.74473   0.38528   0.35520   0.07560  Uani   1.00
H2230  H     0.74125   0.39398   0.34113   0.09100  Uiso   1.00
N2231  N     0.74600   0.28314   0.26123   0.03357  Uani   1.00
N2232  N     0.50163   0.47221   0.48835   0.03837  Uani   1.00
C2233  C     0.74380   0.30699   0.26785   0.04437  Uani   1.00
H2234  H     0.73865   0.31220   0.28295   0.05300  Uiso   1.00
C2235  C     0.50253   0.44823   0.48143   0.05277  Uani   1.00
H2236  H     0.50465   0.44300   0.46573   0.06300  Uiso   1.00
C2237  C     0.50565   0.39058   0.48028   0.06813  Uani   1.00
H2238  H     0.50990   0.39933   0.46640   0.08200  Uiso   1.00
C2239  C     0.50528   0.36472   0.48020   0.07560  Uani   1.00
H2240  H     0.50875   0.35602   0.46613   0.09100  Uiso   1.00
N2241  N     0.53314   0.49600   0.42627   0.03357  Uani   1.00
N2242  N     0.72222   0.25163   0.44915   0.03837  Uani   1.00
C2243  C     0.55699   0.49380   0.41965   0.04437  Uani   1.00
H2244  H     0.56220   0.48865   0.40455   0.05300  Uiso   1.00
C2245  C     0.69823   0.25253   0.45608   0.05277  Uani   1.00
H2246  H     0.69300   0.25465   0.47178   0.06300  Uiso   1.00
C2247  C     0.64058   0.25565   0.45723   0.06813  Uani   1.00
H2248  H     0.64933   0.25990   0.47110   0.08200  Uiso   1.00
C2249  C     0.61473   0.25528   0.45730   0.07560  Uani   1.00
H2250  H     0.60603   0.25875   0.47138   0.09100  Uiso   1.00
N2251  N     0.71686   0.25400   0.30127   0.03357  Uani   1.00
N2252  N     0.52779   0.49837   0.32415   0.03837  Uani   1.00
C2253  C     0.69301   0.25620   0.29465   0.04437  Uani   1.00
H2254  H     0.68780   0.26135   0.27955   0.05300  Uiso   1.00
C2255  C     0.55178   0.49747   0.33108   0.05277  Uani   1.00
H2256  H     0.55700   0.49535   0.34678   0.06300  Uiso   1.00
C2257  C     0.60943   0.49435   0.33223   0.06813  Uani   1.00
H2258  H     0.60068   0.49010   0.34610   0.08200  Uiso   1.00
C2259  C     0.63528   0.49472   0.33230   0.07560  Uani   1.00
H2260  H     0.64398   0.49125   0.34638   0.09100  Uiso   1.00
N2261  N     0.74600   0.46686   0.36377   0.03357  Uani   1.00
N2262  N     0.50163   0.27779   0.38665   0.03837  Uani   1.00
C2263  C     0.74380   0.44301   0.35715   0.04437  Uani   1.00
H2264  H     0.73865   0.43780   0.34205   0.05300  Uiso   1.00
C2265  C     0.50253   0.30178   0.39358   0.05277  Uani   1.00
H2266  H     0.50465   0.30700   0.40928   0.06300  Uiso   1.00
C2267  C     0.50565   0.35943   0.39473   0.06813  Uani   1.00
H2268  H     0.50990   0.35068   0.40860   0.08200  Uiso   1.00
C2269  C     0.50528   0.38528   0.39480   0.07560  Uani   1.00
H2270  H     0.50875   0.39398   0.40888   0.09100  Uiso   1.00
N2271  N     0.50400   0.28314   0.48877   0.03357  Uani   1.00
N2272  N     0.74837   0.47221   0.26165   0.03837  Uani   1.00
C2273  C     0.50620   0.30699   0.48215   0.04437  Uani   1.00
H2274  H     0.51135   0.31220   0.46705   0.05300  Uiso   1.00
C2275  C     0.74748   0.44823   0.26857   0.05277  Uani   1.00
H2276  H     0.74535   0.44300   0.28428   0.06300  Uiso   1.00
C2277  C     0.74435   0.39058   0.26973   0.06813  Uani   1.00
H2278  H     0.74010   0.39933   0.28360   0.08200  Uiso   1.00
C2279  C     0.74473   0.36472   0.26980   0.07560  Uani   1.00
H2280  H     0.74125   0.35602   0.28388   0.09100  Uiso   1.00
Co2281 Co    0.74721   0.49721   0.34375   0.02543  Uani   1.00
Co2282 Co    0.50279   0.25279   0.46875   0.02543  Uani   1.00
Co2283 Co    0.50279   0.49721   0.40625   0.02543  Uani   1.00
Co2284 Co    0.74721   0.25279   0.28125   0.02543  Uani   1.00
C2285  C     0.56790   0.25000   0.31250   0.04747  Uani   1.00
C2286  C     0.67678   0.25000   0.31250   0.04137  Uani   1.00
C2287  C     0.64888   0.25000   0.31250   0.05083  Uani   1.00
C2288  C     0.59598   0.25000   0.31250   0.05433  Uani   1.00
C2289  C     0.68210   0.25000   0.43750   0.04747  Uani   1.00
C2290  C     0.57322   0.25000   0.43750   0.04137  Uani   1.00
C2291  C     0.60112   0.25000   0.43750   0.05083  Uani   1.00
C2292  C     0.65402   0.25000   0.43750   0.05433  Uani   1.00
C2293  C     0.50000   0.31790   0.37500   0.04747  Uani   1.00
C2294  C     0.50000   0.42678   0.37500   0.04137  Uani   1.00
C2295  C     0.50000   0.39888   0.37500   0.05083  Uani   1.00
C2296  C     0.50000   0.34598   0.37500   0.05433  Uani   1.00
C2297  C     0.50000   0.43210   0.25000   0.04747  Uani   1.00
C2298  C     0.50000   0.32322   0.25000   0.04137  Uani   1.00
C2299  C     0.50000   0.35112   0.25000   0.05083  Uani   1.00
C2300  C     0.50000   0.40402   0.25000   0.05433  Uani   1.00
N2301  N     0.96686   0.49600   0.32373   0.03357  Uani   1.00
N2302  N     0.77779   0.25163   0.30085   0.03837  Uani   1.00
C2303  C     0.94301   0.49380   0.33035   0.04437  Uani   1.00
H2304  H     0.93780   0.48865   0.34545   0.05300  Uiso   1.00
C2305  C     0.80178   0.25253   0.29393   0.05277  Uani   1.00
H2306  H     0.80700   0.25465   0.27823   0.06300  Uiso   1.00
C2307  C     0.85943   0.25565   0.29278   0.06813  Uani   1.00
H2308  H     0.85068   0.25990   0.27890   0.08200  Uiso   1.00
C2309  C     0.88528   0.25528   0.29270   0.07560  Uani   1.00
H2310  H     0.89398   0.25875   0.27863   0.09100  Uiso   1.00
N2311  N     0.78314   0.25400   0.44873   0.03357  Uani   1.00
N2312  N     0.97222   0.49837   0.42585   0.03837  Uani   1.00
C2313  C     0.80699   0.25620   0.45535   0.04437  Uani   1.00
H2314  H     0.81220   0.26135   0.47045   0.05300  Uiso   1.00
C2315  C     0.94823   0.49747   0.41893   0.05277  Uani   1.00
H2316  H     0.94300   0.49535   0.40323   0.06300  Uiso   1.00
C2317  C     0.89058   0.49435   0.41778   0.06813  Uani   1.00
H2318  H     0.89933   0.49010   0.40390   0.08200  Uiso   1.00
C2319  C     0.86472   0.49472   0.41770   0.07560  Uani   1.00
H2320  H     0.85602   0.49125   0.40363   0.09100  Uiso   1.00
N2321  N     0.75400   0.46686   0.38623   0.03357  Uani   1.00
N2322  N     0.99838   0.27779   0.36335   0.03837  Uani   1.00
C2323  C     0.75620   0.44301   0.39285   0.04437  Uani   1.00
H2324  H     0.76135   0.43780   0.40795   0.05300  Uiso   1.00
C2325  C     0.99748   0.30178   0.35643   0.05277  Uani   1.00
H2326  H     0.99535   0.30700   0.34073   0.06300  Uiso   1.00
C2327  C     0.99435   0.35943   0.35528   0.06813  Uani   1.00
H2328  H     0.99010   0.35068   0.34140   0.08200  Uiso   1.00
C2329  C     0.99473   0.38528   0.35520   0.07560  Uani   1.00
H2330  H     0.99125   0.39398   0.34113   0.09100  Uiso   1.00
N2331  N     0.99600   0.28314   0.26123   0.03357  Uani   1.00
N2332  N     0.75163   0.47221   0.48835   0.03837  Uani   1.00
C2333  C     0.99380   0.30699   0.26785   0.04437  Uani   1.00
H2334  H     0.98865   0.31220   0.28295   0.05300  Uiso   1.00
C2335  C     0.75253   0.44823   0.48143   0.05277  Uani   1.00
H2336  H     0.75465   0.44300   0.46573   0.06300  Uiso   1.00
C2337  C     0.75565   0.39058   0.48028   0.06813  Uani   1.00
H2338  H     0.75990   0.39933   0.46640   0.08200  Uiso   1.00
C2339  C     0.75528   0.36472   0.48020   0.07560  Uani   1.00
H2340  H     0.75875   0.35602   0.46613   0.09100  Uiso   1.00
N2341  N     0.78314   0.49600   0.42627   0.03357  Uani   1.00
N2342  N     0.97222   0.25163   0.44915   0.03837  Uani   1.00
C2343  C     0.80699   0.49380   0.41965   0.04437  Uani   1.00
H2344  H     0.81220   0.48865   0.40455   0.05300  Uiso   1.00
C2345  C     0.94823   0.25253   0.45608   0.05277  Uani   1.00
H2346  H     0.94300   0.25465   0.47178   0.06300  Uiso   1.00
C2347  C     0.89058   0.25565   0.45723   0.06813  Uani   1.00
H2348  H     0.89933   0.25990   0.47110   0.08200  Uiso   1.00
C2349  C     0.86472   0.25528   0.45730   0.07560  Uani   1.00
H2350  H     0.85602   0.25875   0.47138   0.09100  Uiso   1.00
N2351  N     0.96686   0.25400   0.30127   0.03357  Uani   1.00
N2352  N     0.77779   0.49837   0.32415   0.03837  Uani   1.00
C2353  C     0.94301   0.25620   0.29465   0.04437  Uani   1.00
H2354  H     0.93780   0.26135   0.27955   0.05300  Uiso   1.00
C2355  C     0.80178   0.49747   0.33108   0.05277  Uani   1.00
H2356  H     0.80700   0.49535   0.34678   0.06300  Uiso   1.00
C2357  C     0.85943   0.49435   0.33223   0.06813  Uani   1.00
H2358  H     0.85068   0.49010   0.34610   0.08200  Uiso   1.00
C2359  C     0.88528   0.49472   0.33230   0.07560  Uani   1.00
H2360  H     0.89398   0.49125   0.34638   0.09100  Uiso   1.00
N2361  N     0.99600   0.46686   0.36377   0.03357  Uani   1.00
N2362  N     0.75163   0.27779   0.38665   0.03837  Uani   1.00
C2363  C     0.99380   0.44301   0.35715   0.04437  Uani   1.00
H2364  H     0.98865   0.43780   0.34205   0.05300  Uiso   1.00
C2365  C     0.75253   0.30178   0.39358   0.05277  Uani   1.00
H2366  H     0.75465   0.30700   0.40928   0.06300  Uiso   1.00
C2367  C     0.75565   0.35943   0.39473   0.06813  Uani   1.00
H2368  H     0.75990   0.35068   0.40860   0.08200  Uiso   1.00
C2369  C     0.75528   0.38528   0.39480   0.07560  Uani   1.00
H2370  H     0.75875   0.39398   0.40888   0.09100  Uiso   1.00
N2371  N     0.75400   0.28314   0.48877   0.03357  Uani   1.00
N2372  N     0.99838   0.47221   0.26165   0.03837  Uani   1.00
C2373  C     0.75620   0.30699   0.48215   0.04437  Uani   1.00
H2374  H     0.76135   0.31220   0.46705   0.05300  Uiso   1.00
C2375  C     0.99748   0.44823   0.26857   0.05277  Uani   1.00
H2376  H     0.99535   0.44300   0.28428   0.06300  Uiso   1.00
C2377  C     0.99435   0.39058   0.26973   0.06813  Uani   1.00
H2378  H     0.99010   0.39933   0.28360   0.08200  Uiso   1.00
C2379  C     0.99473   0.36472   0.26980   0.07560  Uani   1.00
H2380  H     0.99125   0.35602   0.28388   0.09100  Uiso   1.00
Co2381 Co    0.99721   0.49721   0.34375   0.02543  Uani   1.00
Co2382 Co    0.75279   0.25279   0.46875   0.02543  Uani   1.00
Co2383 Co    0.75279   0.49721   0.40625   0.02543  Uani   1.00
Co2384 Co    0.99721   0.25279   0.28125   0.02543  Uani   1.00
C2385  C     0.81790   0.25000   0.31250   0.04747  Uani   1.00
C2386  C     0.92678   0.25000   0.31250   0.04137  Uani   1.00
C2387  C     0.89888   0.25000   0.31250   0.05083  Uani   1.00
C2388  C     0.84598   0.25000   0.31250   0.05433  Uani   1.00
C2389  C     0.93210   0.25000   0.43750   0.04747  Uani   1.00
C2390  C     0.82322   0.25000   0.43750   0.04137  Uani   1.00
C2391  C     0.85113   0.25000   0.43750   0.05083  Uani   1.00
C2392  C     0.90403   0.25000   0.43750   0.05433  Uani   1.00
C2393  C     0.75000   0.31790   0.37500   0.04747  Uani   1.00
C2394  C     0.75000   0.42678   0.37500   0.04137  Uani   1.00
C2395  C     0.75000   0.39888   0.37500   0.05083  Uani   1.00
C2396  C     0.75000   0.34598   0.37500   0.05433  Uani   1.00
C2397  C     0.75000   0.43210   0.25000   0.04747  Uani   1.00
C2398  C     0.75000   0.32322   0.25000   0.04137  Uani   1.00
C2399  C     0.75000   0.35112   0.25000   0.05083  Uani   1.00
C2400  C     0.75000   0.40402   0.25000   0.05433  Uani   1.00
N2401  N     0.21686   0.74600   0.32373   0.03357  Uani   1.00
N2402  N     0.02778   0.50163   0.30085   0.03837  Uani   1.00
C2403  C     0.19301   0.74380   0.33035   0.04437  Uani   1.00
H2404  H     0.18780   0.73865   0.34545   0.05300  Uiso   1.00
C2405  C     0.05177   0.50253   0.29393   0.05277  Uani   1.00
H2406  H     0.05700   0.50465   0.27823   0.06300  Uiso   1.00
C2407  C     0.10943   0.50565   0.29278   0.06813  Uani   1.00
H2408  H     0.10068   0.50990   0.27890   0.08200  Uiso   1.00
C2409  C     0.13528   0.50528   0.29270   0.07560  Uani   1.00
H2410  H     0.14398   0.50875   0.27863   0.09100  Uiso   1.00
N2411  N     0.03314   0.50400   0.44873   0.03357  Uani   1.00
N2412  N     0.22221   0.74837   0.42585   0.03837  Uani   1.00
C2413  C     0.05699   0.50620   0.45535   0.04437  Uani   1.00
H2414  H     0.06220   0.51135   0.47045   0.05300  Uiso   1.00
C2415  C     0.19823   0.74747   0.41893   0.05277  Uani   1.00
H2416  H     0.19300   0.74535   0.40323   0.06300  Uiso   1.00
C2417  C     0.14057   0.74435   0.41778   0.06813  Uani   1.00
H2418  H     0.14932   0.74010   0.40390   0.08200  Uiso   1.00
C2419  C     0.11472   0.74472   0.41770   0.07560  Uani   1.00
H2420  H     0.10602   0.74125   0.40363   0.09100  Uiso   1.00
N2421  N     0.00400   0.71686   0.38623   0.03357  Uani   1.00
N2422  N     0.24837   0.52779   0.36335   0.03837  Uani   1.00
C2423  C     0.00620   0.69301   0.39285   0.04437  Uani   1.00
H2424  H     0.01135   0.68780   0.40795   0.05300  Uiso   1.00
C2425  C     0.24748   0.55178   0.35643   0.05277  Uani   1.00
H2426  H     0.24535   0.55700   0.34073   0.06300  Uiso   1.00
C2427  C     0.24435   0.60943   0.35528   0.06813  Uani   1.00
H2428  H     0.24010   0.60068   0.34140   0.08200  Uiso   1.00
C2429  C     0.24473   0.63528   0.35520   0.07560  Uani   1.00
H2430  H     0.24125   0.64398   0.34113   0.09100  Uiso   1.00
N2431  N     0.24600   0.53314   0.26123   0.03357  Uani   1.00
N2432  N     0.00163   0.72221   0.48835   0.03837  Uani   1.00
C2433  C     0.24380   0.55699   0.26785   0.04437  Uani   1.00
H2434  H     0.23865   0.56220   0.28295   0.05300  Uiso   1.00
C2435  C     0.00253   0.69823   0.48143   0.05277  Uani   1.00
H2436  H     0.00465   0.69300   0.46573   0.06300  Uiso   1.00
C2437  C     0.00565   0.64058   0.48028   0.06813  Uani   1.00
H2438  H     0.00990   0.64933   0.46640   0.08200  Uiso   1.00
C2439  C     0.00528   0.61472   0.48020   0.07560  Uani   1.00
H2440  H     0.00875   0.60602   0.46613   0.09100  Uiso   1.00
N2441  N     0.03314   0.74600   0.42627   0.03357  Uani   1.00
N2442  N     0.22221   0.50163   0.44915   0.03837  Uani   1.00
C2443  C     0.05699   0.74380   0.41965   0.04437  Uani   1.00
H2444  H     0.06220   0.73865   0.40455   0.05300  Uiso   1.00
C2445  C     0.19823   0.50253   0.45608   0.05277  Uani   1.00
H2446  H     0.19300   0.50465   0.47178   0.06300  Uiso   1.00
C2447  C     0.14057   0.50565   0.45723   0.06813  Uani   1.00
H2448  H     0.14932   0.50990   0.47110   0.08200  Uiso   1.00
C2449  C     0.11472   0.50528   0.45730   0.07560  Uani   1.00
H2450  H     0.10602   0.50875   0.47138   0.09100  Uiso   1.00
N2451  N     0.21686   0.50400   0.30127   0.03357  Uani   1.00
N2452  N     0.02778   0.74837   0.32415   0.03837  Uani   1.00
C2453  C     0.19301   0.50620   0.29465   0.04437  Uani   1.00
H2454  H     0.18780   0.51135   0.27955   0.05300  Uiso   1.00
C2455  C     0.05177   0.74747   0.33108   0.05277  Uani   1.00
H2456  H     0.05700   0.74535   0.34678   0.06300  Uiso   1.00
C2457  C     0.10943   0.74435   0.33223   0.06813  Uani   1.00
H2458  H     0.10068   0.74010   0.34610   0.08200  Uiso   1.00
C2459  C     0.13528   0.74472   0.33230   0.07560  Uani   1.00
H2460  H     0.14398   0.74125   0.34638   0.09100  Uiso   1.00
N2461  N     0.24600   0.71686   0.36377   0.03357  Uani   1.00
N2462  N     0.00163   0.52779   0.38665   0.03837  Uani   1.00
C2463  C     0.24380   0.69301   0.35715   0.04437  Uani   1.00
H2464  H     0.23865   0.68780   0.34205   0.05300  Uiso   1.00
C2465  C     0.00253   0.55178   0.39358   0.05277  Uani   1.00
H2466  H     0.00465   0.55700   0.40928   0.06300  Uiso   1.00
C2467  C     0.00565   0.60943   0.39473   0.06813  Uani   1.00
H2468  H     0.00990   0.60068   0.40860   0.08200  Uiso   1.00
C2469  C     0.00528   0.63528   0.39480   0.07560  Uani   1.00
H2470  H     0.00875   0.64398   0.40888   0.09100  Uiso   1.00
N2471  N     0.00400   0.53314   0.48877   0.03357  Uani   1.00
N2472  N     0.24837   0.72221   0.26165   0.03837  Uani   1.00
C2473  C     0.00620   0.55699   0.48215   0.04437  Uani   1.00
H2474  H     0.01135   0.56220   0.46705   0.05300  Uiso   1.00
C2475  C     0.24748   0.69823   0.26857   0.05277  Uani   1.00
H2476  H     0.24535   0.69300   0.28428   0.06300  Uiso   1.00
C2477  C     0.24435   0.64058   0.26973   0.06813  Uani   1.00
H2478  H     0.24010   0.64933   0.28360   0.08200  Uiso   1.00
C2479  C     0.24473   0.61472   0.26980   0.07560  Uani   1.00
H2480  H     0.24125   0.60602   0.28388   0.09100  Uiso   1.00
Co2481 Co    0.24721   0.74721   0.34375   0.02543  Uani   1.00
Co2482 Co    0.00279   0.50279   0.46875   0.02543  Uani   1.00
Co2483 Co    0.00279   0.74721   0.40625   0.02543  Uani   1.00
Co2484 Co    0.24721   0.50279   0.28125   0.02543  Uani   1.00
C2485  C     0.06790   0.50000   0.31250   0.04747  Uani   1.00
C2486  C     0.17678   0.50000   0.31250   0.04137  Uani   1.00
C2487  C     0.14888   0.50000   0.31250   0.05083  Uani   1.00
C2488  C     0.09598   0.50000   0.31250   0.05433  Uani   1.00
C2489  C     0.18210   0.50000   0.43750   0.04747  Uani   1.00
C2490  C     0.07322   0.50000   0.43750   0.04137  Uani   1.00
C2491  C     0.10112   0.50000   0.43750   0.05083  Uani   1.00
C2492  C     0.15402   0.50000   0.43750   0.05433  Uani   1.00
C2493  C     0.00000   0.56790   0.37500   0.04747  Uani   1.00
C2494  C     0.00000   0.67678   0.37500   0.04137  Uani   1.00
C2495  C     0.00000   0.64888   0.37500   0.05083  Uani   1.00
C2496  C     0.00000   0.59598   0.37500   0.05433  Uani   1.00
C2497  C     0.00000   0.68210   0.25000   0.04747  Uani   1.00
C2498  C     0.00000   0.57322   0.25000   0.04137  Uani   1.00
C2499  C     0.00000   0.60112   0.25000   0.05083  Uani   1.00
C2500  C     0.00000   0.65402   0.25000   0.05433  Uani   1.00
N2501  N     0.46686   0.74600   0.32373   0.03357  Uani   1.00
N2502  N     0.27778   0.50163   0.30085   0.03837  Uani   1.00
C2503  C     0.44301   0.74380   0.33035   0.04437  Uani   1.00
H2504  H     0.43780   0.73865   0.34545   0.05300  Uiso   1.00
C2505  C     0.30177   0.50253   0.29393   0.05277  Uani   1.00
H2506  H     0.30700   0.50465   0.27823   0.06300  Uiso   1.00
C2507  C     0.35943   0.50565   0.29278   0.06813  Uani   1.00
H2508  H     0.35068   0.50990   0.27890   0.08200  Uiso   1.00
C2509  C     0.38528   0.50528   0.29270   0.07560  Uani   1.00
H2510  H     0.39398   0.50875   0.27863   0.09100  Uiso   1.00
N2511  N     0.28314   0.50400   0.44873   0.03357  Uani   1.00
N2512  N     0.47222   0.74837   0.42585   0.03837  Uani   1.00
C2513  C     0.30699   0.50620   0.45535   0.04437  Uani   1.00
H2514  H     0.31220   0.51135   0.47045   0.05300  Uiso   1.00
C2515  C     0.44822   0.74747   0.41893   0.05277  Uani   1.00
H2516  H     0.44300   0.74535   0.40323   0.06300  Uiso   1.00
C2517  C     0.39057   0.74435   0.41778   0.06813  Uani   1.00
H2518  H     0.39933   0.74010   0.40390   0.08200  Uiso   1.00
C2519  C     0.36472   0.74472   0.41770   0.07560  Uani   1.00
H2520  H     0.35602   0.74125   0.40363   0.09100  Uiso   1.00
N2521  N     0.25400   0.71686   0.38623   0.03357  Uani   1.00
N2522  N     0.49838   0.52779   0.36335   0.03837  Uani   1.00
C2523  C     0.25620   0.69301   0.39285   0.04437  Uani   1.00
H2524  H     0.26135   0.68780   0.40795   0.05300  Uiso   1.00
C2525  C     0.49748   0.55178   0.35643   0.05277  Uani   1.00
H2526  H     0.49535   0.55700   0.34073   0.06300  Uiso   1.00
C2527  C     0.49435   0.60943   0.35528   0.06813  Uani   1.00
H2528  H     0.49010   0.60068   0.34140   0.08200  Uiso   1.00
C2529  C     0.49473   0.63528   0.35520   0.07560  Uani   1.00
H2530  H     0.49125   0.64398   0.34113   0.09100  Uiso   1.00
N2531  N     0.49600   0.53314   0.26123   0.03357  Uani   1.00
N2532  N     0.25163   0.72221   0.48835   0.03837  Uani   1.00
C2533  C     0.49380   0.55699   0.26785   0.04437  Uani   1.00
H2534  H     0.48865   0.56220   0.28295   0.05300  Uiso   1.00
C2535  C     0.25253   0.69823   0.48143   0.05277  Uani   1.00
H2536  H     0.25465   0.69300   0.46573   0.06300  Uiso   1.00
C2537  C     0.25565   0.64058   0.48028   0.06813  Uani   1.00
H2538  H     0.25990   0.64933   0.46640   0.08200  Uiso   1.00
C2539  C     0.25528   0.61472   0.48020   0.07560  Uani   1.00
H2540  H     0.25875   0.60602   0.46613   0.09100  Uiso   1.00
N2541  N     0.28314   0.74600   0.42627   0.03357  Uani   1.00
N2542  N     0.47222   0.50163   0.44915   0.03837  Uani   1.00
C2543  C     0.30699   0.74380   0.41965   0.04437  Uani   1.00
H2544  H     0.31220   0.73865   0.40455   0.05300  Uiso   1.00
C2545  C     0.44822   0.50253   0.45608   0.05277  Uani   1.00
H2546  H     0.44300   0.50465   0.47178   0.06300  Uiso   1.00
C2547  C     0.39057   0.50565   0.45723   0.06813  Uani   1.00
H2548  H     0.39933   0.50990   0.47110   0.08200  Uiso   1.00
C2549  C     0.36472   0.50528   0.45730   0.07560  Uani   1.00
H2550  H     0.35602   0.50875   0.47138   0.09100  Uiso   1.00
N2551  N     0.46686   0.50400   0.30127   0.03357  Uani   1.00
N2552  N     0.27778   0.74837   0.32415   0.03837  Uani   1.00
C2553  C     0.44301   0.50620   0.29465   0.04437  Uani   1.00
H2554  H     0.43780   0.51135   0.27955   0.05300  Uiso   1.00
C2555  C     0.30177   0.74747   0.33108   0.05277  Uani   1.00
H2556  H     0.30700   0.74535   0.34678   0.06300  Uiso   1.00
C2557  C     0.35943   0.74435   0.33223   0.06813  Uani   1.00
H2558  H     0.35068   0.74010   0.34610   0.08200  Uiso   1.00
C2559  C     0.38528   0.74472   0.33230   0.07560  Uani   1.00
H2560  H     0.39398   0.74125   0.34638   0.09100  Uiso   1.00
N2561  N     0.49600   0.71686   0.36377   0.03357  Uani   1.00
N2562  N     0.25163   0.52779   0.38665   0.03837  Uani   1.00
C2563  C     0.49380   0.69301   0.35715   0.04437  Uani   1.00
H2564  H     0.48865   0.68780   0.34205   0.05300  Uiso   1.00
C2565  C     0.25253   0.55178   0.39358   0.05277  Uani   1.00
H2566  H     0.25465   0.55700   0.40928   0.06300  Uiso   1.00
C2567  C     0.25565   0.60943   0.39473   0.06813  Uani   1.00
H2568  H     0.25990   0.60068   0.40860   0.08200  Uiso   1.00
C2569  C     0.25528   0.63528   0.39480   0.07560  Uani   1.00
H2570  H     0.25875   0.64398   0.40888   0.09100  Uiso   1.00
N2571  N     0.25400   0.53314   0.48877   0.03357  Uani   1.00
N2572  N     0.49838   0.72221   0.26165   0.03837  Uani   1.00
C2573  C     0.25620   0.55699   0.48215   0.04437  Uani   1.00
H2574  H     0.26135   0.56220   0.46705   0.05300  Uiso   1.00
C2575  C     0.49748   0.69823   0.26857   0.05277  Uani   1.00
H2576  H     0.49535   0.69300   0.28428   0.06300  Uiso   1.00
C2577  C     0.49435   0.64058   0.26973   0.06813  Uani   1.00
H2578  H     0.49010   0.64933   0.28360   0.08200  Uiso   1.00
C2579  C     0.49473   0.61472   0.26980   0.07560  Uani   1.00
H2580  H     0.49125   0.60602   0.28388   0.09100  Uiso   1.00
Co2581 Co    0.49721   0.74721   0.34375   0.02543  Uani   1.00
Co2582 Co    0.25279   0.50279   0.46875   0.02543  Uani   1.00
Co2583 Co    0.25279   0.74721   0.40625   0.02543  Uani   1.00
Co2584 Co    0.49721   0.50279   0.28125   0.02543  Uani   1.00
C2585  C     0.31790   0.50000   0.31250   0.04747  Uani   1.00
C2586  C     0.42678   0.50000   0.31250   0.04137  Uani   1.00
C2587  C     0.39888   0.50000   0.31250   0.05083  Uani   1.00
C2588  C     0.34598   0.50000   0.31250   0.05433  Uani   1.00
C2589  C     0.43210   0.50000   0.43750   0.04747  Uani   1.00
C2590  C     0.32322   0.50000   0.43750   0.04137  Uani   1.00
C2591  C     0.35112   0.50000   0.43750   0.05083  Uani   1.00
C2592  C     0.40403   0.50000   0.43750   0.05433  Uani   1.00
C2593  C     0.25000   0.56790   0.37500   0.04747  Uani   1.00
C2594  C     0.25000   0.67678   0.37500   0.04137  Uani   1.00
C2595  C     0.25000   0.64888   0.37500   0.05083  Uani   1.00
C2596  C     0.25000   0.59598   0.37500   0.05433  Uani   1.00
C2597  C     0.25000   0.68210   0.25000   0.04747  Uani   1.00
C2598  C     0.25000   0.57322   0.25000   0.04137  Uani   1.00
C2599  C     0.25000   0.60112   0.25000   0.05083  Uani   1.00
C2600  C     0.25000   0.65402   0.25000   0.05433  Uani   1.00
N2601  N     0.71686   0.74600   0.32373   0.03357  Uani   1.00
N2602  N     0.52779   0.50163   0.30085   0.03837  Uani   1.00
C2603  C     0.69301   0.74380   0.33035   0.04437  Uani   1.00
H2604  H     0.68780   0.73865   0.34545   0.05300  Uiso   1.00
C2605  C     0.55178   0.50253   0.29393   0.05277  Uani   1.00
H2606  H     0.55700   0.50465   0.27823   0.06300  Uiso   1.00
C2607  C     0.60943   0.50565   0.29278   0.06813  Uani   1.00
H2608  H     0.60068   0.50990   0.27890   0.08200  Uiso   1.00
C2609  C     0.63528   0.50528   0.29270   0.07560  Uani   1.00
H2610  H     0.64398   0.50875   0.27863   0.09100  Uiso   1.00
N2611  N     0.53314   0.50400   0.44873   0.03357  Uani   1.00
N2612  N     0.72222   0.74837   0.42585   0.03837  Uani   1.00
C2613  C     0.55699   0.50620   0.45535   0.04437  Uani   1.00
H2614  H     0.56220   0.51135   0.47045   0.05300  Uiso   1.00
C2615  C     0.69823   0.74747   0.41893   0.05277  Uani   1.00
H2616  H     0.69300   0.74535   0.40323   0.06300  Uiso   1.00
C2617  C     0.64058   0.74435   0.41778   0.06813  Uani   1.00
H2618  H     0.64933   0.74010   0.40390   0.08200  Uiso   1.00
C2619  C     0.61473   0.74472   0.41770   0.07560  Uani   1.00
H2620  H     0.60603   0.74125   0.40363   0.09100  Uiso   1.00
N2621  N     0.50400   0.71686   0.38623   0.03357  Uani   1.00
N2622  N     0.74837   0.52779   0.36335   0.03837  Uani   1.00
C2623  C     0.50620   0.69301   0.39285   0.04437  Uani   1.00
H2624  H     0.51135   0.68780   0.40795   0.05300  Uiso   1.00
C2625  C     0.74748   0.55178   0.35643   0.05277  Uani   1.00
H2626  H     0.74535   0.55700   0.34073   0.06300  Uiso   1.00
C2627  C     0.74435   0.60943   0.35528   0.06813  Uani   1.00
H2628  H     0.74010   0.60068   0.34140   0.08200  Uiso   1.00
C2629  C     0.74473   0.63528   0.35520   0.07560  Uani   1.00
H2630  H     0.74125   0.64398   0.34113   0.09100  Uiso   1.00
N2631  N     0.74600   0.53314   0.26123   0.03357  Uani   1.00
N2632  N     0.50163   0.72221   0.48835   0.03837  Uani   1.00
C2633  C     0.74380   0.55699   0.26785   0.04437  Uani   1.00
H2634  H     0.73865   0.56220   0.28295   0.05300  Uiso   1.00
C2635  C     0.50253   0.69823   0.48143   0.05277  Uani   1.00
H2636  H     0.50465   0.69300   0.46573   0.06300  Uiso   1.00
C2637  C     0.50565   0.64058   0.48028   0.06813  Uani   1.00
H2638  H     0.50990   0.64933   0.46640   0.08200  Uiso   1.00
C2639  C     0.50528   0.61472   0.48020   0.07560  Uani   1.00
H2640  H     0.50875   0.60602   0.46613   0.09100  Uiso   1.00
N2641  N     0.53314   0.74600   0.42627   0.03357  Uani   1.00
N2642  N     0.72222   0.50163   0.44915   0.03837  Uani   1.00
C2643  C     0.55699   0.74380   0.41965   0.04437  Uani   1.00
H2644  H     0.56220   0.73865   0.40455   0.05300  Uiso   1.00
C2645  C     0.69823   0.50253   0.45608   0.05277  Uani   1.00
H2646  H     0.69300   0.50465   0.47178   0.06300  Uiso   1.00
C2647  C     0.64058   0.50565   0.45723   0.06813  Uani   1.00
H2648  H     0.64933   0.50990   0.47110   0.08200  Uiso   1.00
C2649  C     0.61473   0.50528   0.45730   0.07560  Uani   1.00
H2650  H     0.60603   0.50875   0.47138   0.09100  Uiso   1.00
N2651  N     0.71686   0.50400   0.30127   0.03357  Uani   1.00
N2652  N     0.52779   0.74837   0.32415   0.03837  Uani   1.00
C2653  C     0.69301   0.50620   0.29465   0.04437  Uani   1.00
H2654  H     0.68780   0.51135   0.27955   0.05300  Uiso   1.00
C2655  C     0.55178   0.74747   0.33108   0.05277  Uani   1.00
H2656  H     0.55700   0.74535   0.34678   0.06300  Uiso   1.00
C2657  C     0.60943   0.74435   0.33223   0.06813  Uani   1.00
H2658  H     0.60068   0.74010   0.34610   0.08200  Uiso   1.00
C2659  C     0.63528   0.74472   0.33230   0.07560  Uani   1.00
H2660  H     0.64398   0.74125   0.34638   0.09100  Uiso   1.00
N2661  N     0.74600   0.71686   0.36377   0.03357  Uani   1.00
N2662  N     0.50163   0.52779   0.38665   0.03837  Uani   1.00
C2663  C     0.74380   0.69301   0.35715   0.04437  Uani   1.00
H2664  H     0.73865   0.68780   0.34205   0.05300  Uiso   1.00
C2665  C     0.50253   0.55178   0.39358   0.05277  Uani   1.00
H2666  H     0.50465   0.55700   0.40928   0.06300  Uiso   1.00
C2667  C     0.50565   0.60943   0.39473   0.06813  Uani   1.00
H2668  H     0.50990   0.60068   0.40860   0.08200  Uiso   1.00
C2669  C     0.50528   0.63528   0.39480   0.07560  Uani   1.00
H2670  H     0.50875   0.64398   0.40888   0.09100  Uiso   1.00
N2671  N     0.50400   0.53314   0.48877   0.03357  Uani   1.00
N2672  N     0.74837   0.72221   0.26165   0.03837  Uani   1.00
C2673  C     0.50620   0.55699   0.48215   0.04437  Uani   1.00
H2674  H     0.51135   0.56220   0.46705   0.05300  Uiso   1.00
C2675  C     0.74748   0.69823   0.26857   0.05277  Uani   1.00
H2676  H     0.74535   0.69300   0.28428   0.06300  Uiso   1.00
C2677  C     0.74435   0.64058   0.26973   0.06813  Uani   1.00
H2678  H     0.74010   0.64933   0.28360   0.08200  Uiso   1.00
C2679  C     0.74473   0.61472   0.26980   0.07560  Uani   1.00
H2680  H     0.74125   0.60602   0.28388   0.09100  Uiso   1.00
Co2681 Co    0.74721   0.74721   0.34375   0.02543  Uani   1.00
Co2682 Co    0.50279   0.50279   0.46875   0.02543  Uani   1.00
Co2683 Co    0.50279   0.74721   0.40625   0.02543  Uani   1.00
Co2684 Co    0.74721   0.50279   0.28125   0.02543  Uani   1.00
C2685  C     0.56790   0.50000   0.31250   0.04747  Uani   1.00
C2686  C     0.67678   0.50000   0.31250   0.04137  Uani   1.00
C2687  C     0.64888   0.50000   0.31250   0.05083  Uani   1.00
C2688  C     0.59598   0.50000   0.31250   0.05433  Uani   1.00
C2689  C     0.68210   0.50000   0.43750   0.04747  Uani   1.00
C2690  C     0.57322   0.50000   0.43750   0.04137  Uani   1.00
C2691  C     0.60112   0.50000   0.43750   0.05083  Uani   1.00
C2692  C     0.65402   0.50000   0.43750   0.05433  Uani   1.00
C2693  C     0.50000   0.56790   0.37500   0.04747  Uani   1.00
C2694  C     0.50000   0.67678   0.37500   0.04137  Uani   1.00
C2695  C     0.50000   0.64888   0.37500   0.05083  Uani   1.00
C2696  C     0.50000   0.59598   0.37500   0.05433  Uani   1.00
C2697  C     0.50000   0.68210   0.25000   0.04747  Uani   1.00
C2698  C     0.50000   0.57322   0.25000   0.04137  Uani   1.00
C2699  C     0.50000   0.60112   0.25000   0.05083  Uani   1.00
C2700  C     0.50000   0.65402   0.25000   0.05433  Uani   1.00
N2701  N     0.96686   0.74600   0.32373   0.03357  Uani   1.00
N2702  N     0.77779   0.50163   0.30085   0.03837  Uani   1.00
C2703  C     0.94301   0.74380   0.33035   0.04437  Uani   1.00
H2704  H     0.93780   0.73865   0.34545   0.05300  Uiso   1.00
C2705  C     0.80178   0.50253   0.29393   0.05277  Uani   1.00
H2706  H     0.80700   0.50465   0.27823   0.06300  Uiso   1.00
C2707  C     0.85943   0.50565   0.29278   0.06813  Uani   1.00
H2708  H     0.85068   0.50990   0.27890   0.08200  Uiso   1.00
C2709  C     0.88528   0.50528   0.29270   0.07560  Uani   1.00
H2710  H     0.89398   0.50875   0.27863   0.09100  Uiso   1.00
N2711  N     0.78314   0.50400   0.44873   0.03357  Uani   1.00
N2712  N     0.97222   0.74837   0.42585   0.03837  Uani   1.00
C2713  C     0.80699   0.50620   0.45535   0.04437  Uani   1.00
H2714  H     0.81220   0.51135   0.47045   0.05300  Uiso   1.00
C2715  C     0.94823   0.74747   0.41893   0.05277  Uani   1.00
H2716  H     0.94300   0.74535   0.40323   0.06300  Uiso   1.00
C2717  C     0.89058   0.74435   0.41778   0.06813  Uani   1.00
H2718  H     0.89933   0.74010   0.40390   0.08200  Uiso   1.00
C2719  C     0.86472   0.74472   0.41770   0.07560  Uani   1.00
H2720  H     0.85602   0.74125   0.40363   0.09100  Uiso   1.00
N2721  N     0.75400   0.71686   0.38623   0.03357  Uani   1.00
N2722  N     0.99838   0.52779   0.36335   0.03837  Uani   1.00
C2723  C     0.75620   0.69301   0.39285   0.04437  Uani   1.00
H2724  H     0.76135   0.68780   0.40795   0.05300  Uiso   1.00
C2725  C     0.99748   0.55178   0.35643   0.05277  Uani   1.00
H2726  H     0.99535   0.55700   0.34073   0.06300  Uiso   1.00
C2727  C     0.99435   0.60943   0.35528   0.06813  Uani   1.00
H2728  H     0.99010   0.60068   0.34140   0.08200  Uiso   1.00
C2729  C     0.99473   0.63528   0.35520   0.07560  Uani   1.00
H2730  H     0.99125   0.64398   0.34113   0.09100  Uiso   1.00
N2731  N     0.99600   0.53314   0.26123   0.03357  Uani   1.00
N2732  N     0.75163   0.72221   0.48835   0.03837  Uani   1.00
C2733  C     0.99380   0.55699   0.26785   0.04437  Uani   1.00
H2734  H     0.98865   0.56220   0.28295   0.05300  Uiso   1.00
C2735  C     0.75253   0.69823   0.48143   0.05277  Uani   1.00
H2736  H     0.75465   0.69300   0.46573   0.06300  Uiso   1.00
C2737  C     0.75565   0.64058   0.48028   0.06813  Uani   1.00
H2738  H     0.75990   0.64933   0.46640   0.08200  Uiso   1.00
C2739  C     0.75528   0.61472   0.48020   0.07560  Uani   1.00
H2740  H     0.75875   0.60602   0.46613   0.09100  Uiso   1.00
N2741  N     0.78314   0.74600   0.42627   0.03357  Uani   1.00
N2742  N     0.97222   0.50163   0.44915   0.03837  Uani   1.00
C2743  C     0.80699   0.74380   0.41965   0.04437  Uani   1.00
H2744  H     0.81220   0.73865   0.40455   0.05300  Uiso   1.00
C2745  C     0.94823   0.50253   0.45608   0.05277  Uani   1.00
H2746  H     0.94300   0.50465   0.47178   0.06300  Uiso   1.00
C2747  C     0.89058   0.50565   0.45723   0.06813  Uani   1.00
H2748  H     0.89933   0.50990   0.47110   0.08200  Uiso   1.00
C2749  C     0.86472   0.50528   0.45730   0.07560  Uani   1.00
H2750  H     0.85602   0.50875   0.47138   0.09100  Uiso   1.00
N2751  N     0.96686   0.50400   0.30127   0.03357  Uani   1.00
N2752  N     0.77779   0.74837   0.32415   0.03837  Uani   1.00
C2753  C     0.94301   0.50620   0.29465   0.04437  Uani   1.00
H2754  H     0.93780   0.51135   0.27955   0.05300  Uiso   1.00
C2755  C     0.80178   0.74747   0.33108   0.05277  Uani   1.00
H2756  H     0.80700   0.74535   0.34678   0.06300  Uiso   1.00
C2757  C     0.85943   0.74435   0.33223   0.06813  Uani   1.00
H2758  H     0.85068   0.74010   0.34610   0.08200  Uiso   1.00
C2759  C     0.88528   0.74472   0.33230   0.07560  Uani   1.00
H2760  H     0.89398   0.74125   0.34638   0.09100  Uiso   1.00
N2761  N     0.99600   0.71686   0.36377   0.03357  Uani   1.00
N2762  N     0.75163   0.52779   0.38665   0.03837  Uani   1.00
C2763  C     0.99380   0.69301   0.35715   0.04437  Uani   1.00
H2764  H     0.98865   0.68780   0.34205   0.05300  Uiso   1.00
C2765  C     0.75253   0.55178   0.39358   0.05277  Uani   1.00
H2766  H     0.75465   0.55700   0.40928   0.06300  Uiso   1.00
C2767  C     0.75565   0.60943   0.39473   0.06813  Uani   1.00
H2768  H     0.75990   0.60068   0.40860   0.08200  Uiso   1.00
C2769  C     0.75528   0.63528   0.39480   0.07560  Uani   1.00
H2770  H     0.75875   0.64398   0.40888   0.09100  Uiso   1.00
N2771  N     0.75400   0.53314   0.48877   0.03357  Uani   1.00
N2772  N     0.99838   0.72221   0.26165   0.03837  Uani   1.00
C2773  C     0.75620   0.55699   0.48215   0.04437  Uani   1.00
H2774  H     0.76135   0.56220   0.46705   0.05300  Uiso   1.00
C2775  C     0.99748   0.69823   0.26857   0.05277  Uani   1.00
H2776  H     0.99535   0.69300   0.28428   0.06300  Uiso   1.00
C2777  C     0.99435   0.64058   0.26973   0.06813  Uani   1.00
H2778  H     0.99010   0.64933   0.28360   0.08200  Uiso   1.00
C2779  C     0.99473   0.61472   0.26980   0.07560  Uani   1.00
H2780  H     0.99125   0.60602   0.28388   0.09100  Uiso   1.00
Co2781 Co    0.99721   0.74721   0.34375   0.02543  Uani   1.00
Co2782 Co    0.75279   0.50279   0.46875   0.02543  Uani   1.00
Co2783 Co    0.75279   0.74721   0.40625   0.02543  Uani   1.00
Co2784 Co    0.99721   0.50279   0.28125   0.02543  Uani   1.00
C2785  C     0.81790   0.50000   0.31250   0.04747  Uani   1.00
C2786  C     0.92678   0.50000   0.31250   0.04137  Uani   1.00
C2787  C     0.89888   0.50000   0.31250   0.05083  Uani   1.00
C2788  C     0.84598   0.50000   0.31250   0.05433  Uani   1.00
C2789  C     0.93210   0.50000   0.43750   0.04747  Uani   1.00
C2790  C     0.82322   0.50000   0.43750   0.04137  Uani   1.00
C2791  C     0.85113   0.50000   0.43750   0.05083  Uani   1.00
C2792  C     0.90403   0.50000   0.43750   0.05433  Uani   1.00
C2793  C     0.75000   0.56790   0.37500   0.04747  Uani   1.00
C2794  C     0.75000   0.67678   0.37500   0.04137  Uani   1.00
C2795  C     0.75000   0.64888   0.37500   0.05083  Uani   1.00
C2796  C     0.75000   0.59598   0.37500   0.05433  Uani   1.00
C2797  C     0.75000   0.68210   0.25000   0.04747  Uani   1.00
C2798  C     0.75000   0.57322   0.25000   0.04137  Uani   1.00
C2799  C     0.75000   0.60112   0.25000   0.05083  Uani   1.00
C2800  C     0.75000   0.65402   0.25000   0.05433  Uani   1.00
N2801  N     0.21686   0.99600   0.32373   0.03357  Uani   1.00
N2802  N     0.02778   0.75163   0.30085   0.03837  Uani   1.00
C2803  C     0.19301   0.99380   0.33035   0.04437  Uani   1.00
H2804  H     0.18780   0.98865   0.34545   0.05300  Uiso   1.00
C2805  C     0.05177   0.75253   0.29393   0.05277  Uani   1.00
H2806  H     0.05700   0.75465   0.27823   0.06300  Uiso   1.00
C2807  C     0.10943   0.75565   0.29278   0.06813  Uani   1.00
H2808  H     0.10068   0.75990   0.27890   0.08200  Uiso   1.00
C2809  C     0.13528   0.75528   0.29270   0.07560  Uani   1.00
H2810  H     0.14398   0.75875   0.27863   0.09100  Uiso   1.00
N2811  N     0.03314   0.75400   0.44873   0.03357  Uani   1.00
N2812  N     0.22221   0.99837   0.42585   0.03837  Uani   1.00
C2813  C     0.05699   0.75620   0.45535   0.04437  Uani   1.00
H2814  H     0.06220   0.76135   0.47045   0.05300  Uiso   1.00
C2815  C     0.19823   0.99747   0.41893   0.05277  Uani   1.00
H2816  H     0.19300   0.99535   0.40323   0.06300  Uiso   1.00
C2817  C     0.14057   0.99435   0.41778   0.06813  Uani   1.00
H2818  H     0.14932   0.99010   0.40390   0.08200  Uiso   1.00
C2819  C     0.11472   0.99473   0.41770   0.07560  Uani   1.00
H2820  H     0.10602   0.99125   0.40363   0.09100  Uiso   1.00
N2821  N     0.00400   0.96686   0.38623   0.03357  Uani   1.00
N2822  N     0.24837   0.77779   0.36335   0.03837  Uani   1.00
C2823  C     0.00620   0.94301   0.39285   0.04437  Uani   1.00
H2824  H     0.01135   0.93780   0.40795   0.05300  Uiso   1.00
C2825  C     0.24748   0.80178   0.35643   0.05277  Uani   1.00
H2826  H     0.24535   0.80700   0.34073   0.06300  Uiso   1.00
C2827  C     0.24435   0.85943   0.35528   0.06813  Uani   1.00
H2828  H     0.24010   0.85068   0.34140   0.08200  Uiso   1.00
C2829  C     0.24473   0.88528   0.35520   0.07560  Uani   1.00
H2830  H     0.24125   0.89398   0.34113   0.09100  Uiso   1.00
N2831  N     0.24600   0.78314   0.26123   0.03357  Uani   1.00
N2832  N     0.00163   0.97221   0.48835   0.03837  Uani   1.00
C2833  C     0.24380   0.80699   0.26785   0.04437  Uani   1.00
H2834  H     0.23865   0.81220   0.28295   0.05300  Uiso   1.00
C2835  C     0.00253   0.94823   0.48143   0.05277  Uani   1.00
H2836  H     0.00465   0.94300   0.46573   0.06300  Uiso   1.00
C2837  C     0.00565   0.89058   0.48028   0.06813  Uani   1.00
H2838  H     0.00990   0.89933   0.46640   0.08200  Uiso   1.00
C2839  C     0.00528   0.86472   0.48020   0.07560  Uani   1.00
H2840  H     0.00875   0.85602   0.46613   0.09100  Uiso   1.00
N2841  N     0.03314   0.99600   0.42627   0.03357  Uani   1.00
N2842  N     0.22221   0.75163   0.44915   0.03837  Uani   1.00
C2843  C     0.05699   0.99380   0.41965   0.04437  Uani   1.00
H2844  H     0.06220   0.98865   0.40455   0.05300  Uiso   1.00
C2845  C     0.19823   0.75253   0.45608   0.05277  Uani   1.00
H2846  H     0.19300   0.75465   0.47178   0.06300  Uiso   1.00
C2847  C     0.14057   0.75565   0.45723   0.06813  Uani   1.00
H2848  H     0.14932   0.75990   0.47110   0.08200  Uiso   1.00
C2849  C     0.11472   0.75528   0.45730   0.07560  Uani   1.00
H2850  H     0.10602   0.75875   0.47138   0.09100  Uiso   1.00
N2851  N     0.21686   0.75400   0.30127   0.03357  Uani   1.00
N2852  N     0.02778   0.99837   0.32415   0.03837  Uani   1.00
C2853  C     0.19301   0.75620   0.29465   0.04437  Uani   1.00
H2854  H     0.18780   0.76135   0.27955   0.05300  Uiso   1.00
C2855  C     0.05177   0.99747   0.33108   0.05277  Uani   1.00
H2856  H     0.05700   0.99535   0.34678   0.06300  Uiso   1.00
C2857  C     0.10943   0.99435   0.33223   0.06813  Uani   1.00
H2858  H     0.10068   0.99010   0.34610   0.08200  Uiso   1.00
C2859  C     0.13528   0.99473   0.33230   0.07560  Uani   1.00
H2860  H     0.14398   0.99125   0.34638   0.09100  Uiso   1.00
N2861  N     0.24600   0.96686   0.36377   0.03357  Uani   1.00
N2862  N     0.00163   0.77779   0.38665   0.03837  Uani   1.00
C2863  C     0.24380   0.94301   0.35715   0.04437  Uani   1.00
H2864  H     0.23865   0.93780   0.34205   0.05300  Uiso   1.00
C2865  C     0.00253   0.80178   0.39358   0.05277  Uani   1.00
H2866  H     0.00465   0.80700   0.40928   0.06300  Uiso   1.00
C2867  C     0.00565   0.85943   0.39473   0.06813  Uani   1.00
H2868  H     0.00990   0.85068   0.40860   0.08200  Uiso   1.00
C2869  C     0.00528   0.88528   0.39480   0.07560  Uani   1.00
H2870  H     0.00875   0.89398   0.40888   0.09100  Uiso   1.00
N2871  N     0.00400   0.78314   0.48877   0.03357  Uani   1.00
N2872  N     0.24837   0.97221   0.26165   0.03837  Uani   1.00
C2873  C     0.00620   0.80699   0.48215   0.04437  Uani   1.00
H2874  H     0.01135   0.81220   0.46705   0.05300  Uiso   1.00
C2875  C     0.24748   0.94823   0.26857   0.05277  Uani   1.00
H2876  H     0.24535   0.94300   0.28428   0.06300  Uiso   1.00
C2877  C     0.24435   0.89058   0.26973   0.06813  Uani   1.00
H2878  H     0.24010   0.89933   0.28360   0.08200  Uiso   1.00
C2879  C     0.24473   0.86472   0.26980   0.07560  Uani   1.00
H2880  H     0.24125   0.85602   0.28388   0.09100  Uiso   1.00
Co2881 Co    0.24721   0.99721   0.34375   0.02543  Uani   1.00
Co2882 Co    0.00279   0.75279   0.46875   0.02543  Uani   1.00
Co2883 Co    0.00279   0.99721   0.40625   0.02543  Uani   1.00
Co2884 Co    0.24721   0.75279   0.28125   0.02543  Uani   1.00
C2885  C     0.06790   0.75000   0.31250   0.04747  Uani   1.00
C2886  C     0.17678   0.75000   0.31250   0.04137  Uani   1.00
C2887  C     0.14888   0.75000   0.31250   0.05083  Uani   1.00
C2888  C     0.09598   0.75000   0.31250   0.05433  Uani   1.00
C2889  C     0.18210   0.75000   0.43750   0.04747  Uani   1.00
C2890  C     0.07322   0.75000   0.43750   0.04137  Uani   1.00
C2891  C     0.10112   0.75000   0.43750   0.05083  Uani   1.00
C2892  C     0.15402   0.75000   0.43750   0.05433  Uani   1.00
C2893  C     0.00000   0.81790   0.37500   0.04747  Uani   1.00
C2894  C     0.00000   0.92678   0.37500   0.04137  Uani   1.00
C2895  C     0.00000   0.89888   0.37500   0.05083  Uani   1.00
C2896  C     0.00000   0.84598   0.37500   0.05433  Uani   1.00
C2897  C     0.00000   0.93210   0.25000   0.04747  Uani   1.00
C2898  C     0.00000   0.82322   0.25000   0.04137  Uani   1.00
C2899  C     0.00000   0.85112   0.25000   0.05083  Uani   1.00
C2900  C     0.00000   0.90402   0.25000   0.05433  Uani   1.00
N2901  N     0.46686   0.99600   0.32373   0.03357  Uani   1.00
N2902  N     0.27778   0.75163   0.30085   0.03837  Uani   1.00
C2903  C     0.44301   0.99380   0.33035   0.04437  Uani   1.00
H2904  H     0.43780   0.98865   0.34545   0.05300  Uiso   1.00
C2905  C     0.30177   0.75253   0.29393   0.05277  Uani   1.00
H2906  H     0.30700   0.75465   0.27823   0.06300  Uiso   1.00
C2907  C     0.35943   0.75565   0.29278   0.06813  Uani   1.00
H2908  H     0.35068   0.75990   0.27890   0.08200  Uiso   1.00
C2909  C     0.38528   0.75528   0.29270   0.07560  Uani   1.00
H2910  H     0.39398   0.75875   0.27863   0.09100  Uiso   1.00
N2911  N     0.28314   0.75400   0.44873   0.03357  Uani   1.00
N2912  N     0.47222   0.99837   0.42585   0.03837  Uani   1.00
C2913  C     0.30699   0.75620   0.45535   0.04437  Uani   1.00
H2914  H     0.31220   0.76135   0.47045   0.05300  Uiso   1.00
C2915  C     0.44822   0.99747   0.41893   0.05277  Uani   1.00
H2916  H     0.44300   0.99535   0.40323   0.06300  Uiso   1.00
C2917  C     0.39057   0.99435   0.41778   0.06813  Uani   1.00
H2918  H     0.39933   0.99010   0.40390   0.08200  Uiso   1.00
C2919  C     0.36472   0.99473   0.41770   0.07560  Uani   1.00
H2920  H     0.35602   0.99125   0.40363   0.09100  Uiso   1.00
N2921  N     0.25400   0.96686   0.38623   0.03357  Uani   1.00
N2922  N     0.49838   0.77779   0.36335   0.03837  Uani   1.00
C2923  C     0.25620   0.94301   0.39285   0.04437  Uani   1.00
H2924  H     0.26135   0.93780   0.40795   0.05300  Uiso   1.00
C2925  C     0.49748   0.80178   0.35643   0.05277  Uani   1.00
H2926  H     0.49535   0.80700   0.34073   0.06300  Uiso   1.00
C2927  C     0.49435   0.85943   0.35528   0.06813  Uani   1.00
H2928  H     0.49010   0.85068   0.34140   0.08200  Uiso   1.00
C2929  C     0.49473   0.88528   0.35520   0.07560  Uani   1.00
H2930  H     0.49125   0.89398   0.34113   0.09100  Uiso   1.00
N2931  N     0.49600   0.78314   0.26123   0.03357  Uani   1.00
N2932  N     0.25163   0.97221   0.48835   0.03837  Uani   1.00
C2933  C     0.49380   0.80699   0.26785   0.04437  Uani   1.00
H2934  H     0.48865   0.81220   0.28295   0.05300  Uiso   1.00
C2935  C     0.25253   0.94823   0.48143   0.05277  Uani   1.00
H2936  H     0.25465   0.94300   0.46573   0.06300  Uiso   1.00
C2937  C     0.25565   0.89058   0.48028   0.06813  Uani   1.00
H2938  H     0.25990   0.89933   0.46640   0.08200  Uiso   1.00
C2939  C     0.25528   0.86472   0.48020   0.07560  Uani   1.00
H2940  H     0.25875   0.85602   0.46613   0.09100  Uiso   1.00
N2941  N     0.28314   0.99600   0.42627   0.03357  Uani   1.00
N2942  N     0.47222   0.75163   0.44915   0.03837  Uani   1.00
C2943  C     0.30699   0.99380   0.41965   0.04437  Uani   1.00
H2944  H     0.31220   0.98865   0.40455   0.05300  Uiso   1.00
C2945  C     0.44822   0.75253   0.45608   0.05277  Uani   1.00
H2946  H     0.44300   0.75465   0.47178   0.06300  Uiso   1.00
C2947  C     0.39057   0.75565   0.45723   0.06813  Uani   1.00
H2948  H     0.39933   0.75990   0.47110   0.08200  Uiso   1.00
C2949  C     0.36472   0.75528   0.45730   0.07560  Uani   1.00
H2950  H     0.35602   0.75875   0.47138   0.09100  Uiso   1.00
N2951  N     0.46686   0.75400   0.30127   0.03357  Uani   1.00
N2952  N     0.27778   0.99837   0.32415   0.03837  Uani   1.00
C2953  C     0.44301   0.75620   0.29465   0.04437  Uani   1.00
H2954  H     0.43780   0.76135   0.27955   0.05300  Uiso   1.00
C2955  C     0.30177   0.99747   0.33108   0.05277  Uani   1.00
H2956  H     0.30700   0.99535   0.34678   0.06300  Uiso   1.00
C2957  C     0.35943   0.99435   0.33223   0.06813  Uani   1.00
H2958  H     0.35068   0.99010   0.34610   0.08200  Uiso   1.00
C2959  C     0.38528   0.99473   0.33230   0.07560  Uani   1.00
H2960  H     0.39398   0.99125   0.34638   0.09100  Uiso   1.00
N2961  N     0.49600   0.96686   0.36377   0.03357  Uani   1.00
N2962  N     0.25163   0.77779   0.38665   0.03837  Uani   1.00
C2963  C     0.49380   0.94301   0.35715   0.04437  Uani   1.00
H2964  H     0.48865   0.93780   0.34205   0.05300  Uiso   1.00
C2965  C     0.25253   0.80178   0.39358   0.05277  Uani   1.00
H2966  H     0.25465   0.80700   0.40928   0.06300  Uiso   1.00
C2967  C     0.25565   0.85943   0.39473   0.06813  Uani   1.00
H2968  H     0.25990   0.85068   0.40860   0.08200  Uiso   1.00
C2969  C     0.25528   0.88528   0.39480   0.07560  Uani   1.00
H2970  H     0.25875   0.89398   0.40888   0.09100  Uiso   1.00
N2971  N     0.25400   0.78314   0.48877   0.03357  Uani   1.00
N2972  N     0.49838   0.97221   0.26165   0.03837  Uani   1.00
C2973  C     0.25620   0.80699   0.48215   0.04437  Uani   1.00
H2974  H     0.26135   0.81220   0.46705   0.05300  Uiso   1.00
C2975  C     0.49748   0.94823   0.26857   0.05277  Uani   1.00
H2976  H     0.49535   0.94300   0.28428   0.06300  Uiso   1.00
C2977  C     0.49435   0.89058   0.26973   0.06813  Uani   1.00
H2978  H     0.49010   0.89933   0.28360   0.08200  Uiso   1.00
C2979  C     0.49473   0.86472   0.26980   0.07560  Uani   1.00
H2980  H     0.49125   0.85602   0.28388   0.09100  Uiso   1.00
Co2981 Co    0.49721   0.99721   0.34375   0.02543  Uani   1.00
Co2982 Co    0.25279   0.75279   0.46875   0.02543  Uani   1.00
Co2983 Co    0.25279   0.99721   0.40625   0.02543  Uani   1.00
Co2984 Co    0.49721   0.75279   0.28125   0.02543  Uani   1.00
C2985  C     0.31790   0.75000   0.31250   0.04747  Uani   1.00
C2986  C     0.42678   0.75000   0.31250   0.04137  Uani   1.00
C2987  C     0.39888   0.75000   0.31250   0.05083  Uani   1.00
C2988  C     0.34598   0.75000   0.31250   0.05433  Uani   1.00
C2989  C     0.43210   0.75000   0.43750   0.04747  Uani   1.00
C2990  C     0.32322   0.75000   0.43750   0.04137  Uani   1.00
C2991  C     0.35112   0.75000   0.43750   0.05083  Uani   1.00
C2992  C     0.40403   0.75000   0.43750   0.05433  Uani   1.00
C2993  C     0.25000   0.81790   0.37500   0.04747  Uani   1.00
C2994  C     0.25000   0.92678   0.37500   0.04137  Uani   1.00
C2995  C     0.25000   0.89888   0.37500   0.05083  Uani   1.00
C2996  C     0.25000   0.84598   0.37500   0.05433  Uani   1.00
C2997  C     0.25000   0.93210   0.25000   0.04747  Uani   1.00
C2998  C     0.25000   0.82322   0.25000   0.04137  Uani   1.00
C2999  C     0.25000   0.85112   0.25000   0.05083  Uani   1.00
C3000  C     0.25000   0.90402   0.25000   0.05433  Uani   1.00
N3001  N     0.71686   0.99600   0.32373   0.03357  Uani   1.00
N3002  N     0.52779   0.75163   0.30085   0.03837  Uani   1.00
C3003  C     0.69301   0.99380   0.33035   0.04437  Uani   1.00
H3004  H     0.68780   0.98865   0.34545   0.05300  Uiso   1.00
C3005  C     0.55178   0.75253   0.29393   0.05277  Uani   1.00
H3006  H     0.55700   0.75465   0.27823   0.06300  Uiso   1.00
C3007  C     0.60943   0.75565   0.29278   0.06813  Uani   1.00
H3008  H     0.60068   0.75990   0.27890   0.08200  Uiso   1.00
C3009  C     0.63528   0.75528   0.29270   0.07560  Uani   1.00
H3010  H     0.64398   0.75875   0.27863   0.09100  Uiso   1.00
N3011  N     0.53314   0.75400   0.44873   0.03357  Uani   1.00
N3012  N     0.72222   0.99837   0.42585   0.03837  Uani   1.00
C3013  C     0.55699   0.75620   0.45535   0.04437  Uani   1.00
H3014  H     0.56220   0.76135   0.47045   0.05300  Uiso   1.00
C3015  C     0.69823   0.99747   0.41893   0.05277  Uani   1.00
H3016  H     0.69300   0.99535   0.40323   0.06300  Uiso   1.00
C3017  C     0.64058   0.99435   0.41778   0.06813  Uani   1.00
H3018  H     0.64933   0.99010   0.40390   0.08200  Uiso   1.00
C3019  C     0.61473   0.99473   0.41770   0.07560  Uani   1.00
H3020  H     0.60603   0.99125   0.40363   0.09100  Uiso   1.00
N3021  N     0.50400   0.96686   0.38623   0.03357  Uani   1.00
N3022  N     0.74837   0.77779   0.36335   0.03837  Uani   1.00
C3023  C     0.50620   0.94301   0.39285   0.04437  Uani   1.00
H3024  H     0.51135   0.93780   0.40795   0.05300  Uiso   1.00
C3025  C     0.74748   0.80178   0.35643   0.05277  Uani   1.00
H3026  H     0.74535   0.80700   0.34073   0.06300  Uiso   1.00
C3027  C     0.74435   0.85943   0.35528   0.06813  Uani   1.00
H3028  H     0.74010   0.85068   0.34140   0.08200  Uiso   1.00
C3029  C     0.74473   0.88528   0.35520   0.07560  Uani   1.00
H3030  H     0.74125   0.89398   0.34113   0.09100  Uiso   1.00
N3031  N     0.74600   0.78314   0.26123   0.03357  Uani   1.00
N3032  N     0.50163   0.97221   0.48835   0.03837  Uani   1.00
C3033  C     0.74380   0.80699   0.26785   0.04437  Uani   1.00
H3034  H     0.73865   0.81220   0.28295   0.05300  Uiso   1.00
C3035  C     0.50253   0.94823   0.48143   0.05277  Uani   1.00
H3036  H     0.50465   0.94300   0.46573   0.06300  Uiso   1.00
C3037  C     0.50565   0.89058   0.48028   0.06813  Uani   1.00
H3038  H     0.50990   0.89933   0.46640   0.08200  Uiso   1.00
C3039  C     0.50528   0.86472   0.48020   0.07560  Uani   1.00
H3040  H     0.50875   0.85602   0.46613   0.09100  Uiso   1.00
N3041  N     0.53314   0.99600   0.42627   0.03357  Uani   1.00
N3042  N     0.72222   0.75163   0.44915   0.03837  Uani   1.00
C3043  C     0.55699   0.99380   0.41965   0.04437  Uani   1.00
H3044  H     0.56220   0.98865   0.40455   0.05300  Uiso   1.00
C3045  C     0.69823   0.75253   0.45608   0.05277  Uani   1.00
H3046  H     0.69300   0.75465   0.47178   0.06300  Uiso   1.00
C3047  C     0.64058   0.75565   0.45723   0.06813  Uani   1.00
H3048  H     0.64933   0.75990   0.47110   0.08200  Uiso   1.00
C3049  C     0.61473   0.75528   0.45730   0.07560  Uani   1.00
H3050  H     0.60603   0.75875   0.47138   0.09100  Uiso   1.00
N3051  N     0.71686   0.75400   0.30127   0.03357  Uani   1.00
N3052  N     0.52779   0.99837   0.32415   0.03837  Uani   1.00
C3053  C     0.69301   0.75620   0.29465   0.04437  Uani   1.00
H3054  H     0.68780   0.76135   0.27955   0.05300  Uiso   1.00
C3055  C     0.55178   0.99747   0.33108   0.05277  Uani   1.00
H3056  H     0.55700   0.99535   0.34678   0.06300  Uiso   1.00
C3057  C     0.60943   0.99435   0.33223   0.06813  Uani   1.00
H3058  H     0.60068   0.99010   0.34610   0.08200  Uiso   1.00
C3059  C     0.63528   0.99473   0.33230   0.07560  Uani   1.00
H3060  H     0.64398   0.99125   0.34638   0.09100  Uiso   1.00
N3061  N     0.74600   0.96686   0.36377   0.03357  Uani   1.00
N3062  N     0.50163   0.77779   0.38665   0.03837  Uani   1.00
C3063  C     0.74380   0.94301   0.35715   0.04437  Uani   1.00
H3064  H     0.73865   0.93780   0.34205   0.05300  Uiso   1.00
C3065  C     0.50253   0.80178   0.39358   0.05277  Uani   1.00
H3066  H     0.50465   0.80700   0.40928   0.06300  Uiso   1.00
C3067  C     0.50565   0.85943   0.39473   0.06813  Uani   1.00
H3068  H     0.50990   0.85068   0.40860   0.08200  Uiso   1.00
C3069  C     0.50528   0.88528   0.39480   0.07560  Uani   1.00
H3070  H     0.50875   0.89398   0.40888   0.09100  Uiso   1.00
N3071  N     0.50400   0.78314   0.48877   0.03357  Uani   1.00
N3072  N     0.74837   0.97221   0.26165   0.03837  Uani   1.00
C3073  C     0.50620   0.80699   0.48215   0.04437  Uani   1.00
H3074  H     0.51135   0.81220   0.46705   0.05300  Uiso   1.00
C3075  C     0.74748   0.94823   0.26857   0.05277  Uani   1.00
H3076  H     0.74535   0.94300   0.28428   0.06300  Uiso   1.00
C3077  C     0.74435   0.89058   0.26973   0.06813  Uani   1.00
H3078  H     0.74010   0.89933   0.28360   0.08200  Uiso   1.00
C3079  C     0.74473   0.86472   0.26980   0.07560  Uani   1.00
H3080  H     0.74125   0.85602   0.28388   0.09100  Uiso   1.00
Co3081 Co    0.74721   0.99721   0.34375   0.02543  Uani   1.00
Co3082 Co    0.50279   0.75279   0.46875   0.02543  Uani   1.00
Co3083 Co    0.50279   0.99721   0.40625   0.02543  Uani   1.00
Co3084 Co    0.74721   0.75279   0.28125   0.02543  Uani   1.00
C3085  C     0.56790   0.75000   0.31250   0.04747  Uani   1.00
C3086  C     0.67678   0.75000   0.31250   0.04137  Uani   1.00
C3087  C     0.64888   0.75000   0.31250   0.05083  Uani   1.00
C3088  C     0.59598   0.75000   0.31250   0.05433  Uani   1.00
C3089  C     0.68210   0.75000   0.43750   0.04747  Uani   1.00
C3090  C     0.57322   0.75000   0.43750   0.04137  Uani   1.00
C3091  C     0.60112   0.75000   0.43750   0.05083  Uani   1.00
C3092  C     0.65402   0.75000   0.43750   0.05433  Uani   1.00
C3093  C     0.50000   0.81790   0.37500   0.04747  Uani   1.00
C3094  C     0.50000   0.92678   0.37500   0.04137  Uani   1.00
C3095  C     0.50000   0.89888   0.37500   0.05083  Uani   1.00
C3096  C     0.50000   0.84598   0.37500   0.05433  Uani   1.00
C3097  C     0.50000   0.93210   0.25000   0.04747  Uani   1.00
C3098  C     0.50000   0.82322   0.25000   0.04137  Uani   1.00
C3099  C     0.50000   0.85112   0.25000   0.05083  Uani   1.00
C3100  C     0.50000   0.90402   0.25000   0.05433  Uani   1.00
N3101  N     0.96686   0.99600   0.32373   0.03357  Uani   1.00
N3102  N     0.77779   0.75163   0.30085   0.03837  Uani   1.00
C3103  C     0.94301   0.99380   0.33035   0.04437  Uani   1.00
H3104  H     0.93780   0.98865   0.34545   0.05300  Uiso   1.00
C3105  C     0.80178   0.75253   0.29393   0.05277  Uani   1.00
H3106  H     0.80700   0.75465   0.27823   0.06300  Uiso   1.00
C3107  C     0.85943   0.75565   0.29278   0.06813  Uani   1.00
H3108  H     0.85068   0.75990   0.27890   0.08200  Uiso   1.00
C3109  C     0.88528   0.75528   0.29270   0.07560  Uani   1.00
H3110  H     0.89398   0.75875   0.27863   0.09100  Uiso   1.00
N3111  N     0.78314   0.75400   0.44873   0.03357  Uani   1.00
N3112  N     0.97222   0.99837   0.42585   0.03837  Uani   1.00
C3113  C     0.80699   0.75620   0.45535   0.04437  Uani   1.00
H3114  H     0.81220   0.76135   0.47045   0.05300  Uiso   1.00
C3115  C     0.94823   0.99747   0.41893   0.05277  Uani   1.00
H3116  H     0.94300   0.99535   0.40323   0.06300  Uiso   1.00
C3117  C     0.89058   0.99435   0.41778   0.06813  Uani   1.00
H3118  H     0.89933   0.99010   0.40390   0.08200  Uiso   1.00
C3119  C     0.86472   0.99473   0.41770   0.07560  Uani   1.00
H3120  H     0.85602   0.99125   0.40363   0.09100  Uiso   1.00
N3121  N     0.75400   0.96686   0.38623   0.03357  Uani   1.00
N3122  N     0.99838   0.77779   0.36335   0.03837  Uani   1.00
C3123  C     0.75620   0.94301   0.39285   0.04437  Uani   1.00
H3124  H     0.76135   0.93780   0.40795   0.05300  Uiso   1.00
C3125  C     0.99748   0.80178   0.35643   0.05277  Uani   1.00
H3126  H     0.99535   0.80700   0.34073   0.06300  Uiso   1.00
C3127  C     0.99435   0.85943   0.35528   0.06813  Uani   1.00
H3128  H     0.99010   0.85068   0.34140   0.08200  Uiso   1.00
C3129  C     0.99473   0.88528   0.35520   0.07560  Uani   1.00
H3130  H     0.99125   0.89398   0.34113   0.09100  Uiso   1.00
N3131  N     0.99600   0.78314   0.26123   0.03357  Uani   1.00
N3132  N     0.75163   0.97221   0.48835   0.03837  Uani   1.00
C3133  C     0.99380   0.80699   0.26785   0.04437  Uani   1.00
H3134  H     0.98865   0.81220   0.28295   0.05300  Uiso   1.00
C3135  C     0.75253   0.94823   0.48143   0.05277  Uani   1.00
H3136  H     0.75465   0.94300   0.46573   0.06300  Uiso   1.00
C3137  C     0.75565   0.89058   0.48028   0.06813  Uani   1.00
H3138  H     0.75990   0.89933   0.46640   0.08200  Uiso   1.00
C3139  C     0.75528   0.86472   0.48020   0.07560  Uani   1.00
H3140  H     0.75875   0.85602   0.46613   0.09100  Uiso   1.00
N3141  N     0.78314   0.99600   0.42627   0.03357  Uani   1.00
N3142  N     0.97222   0.75163   0.44915   0.03837  Uani   1.00
C3143  C     0.80699   0.99380   0.41965   0.04437  Uani   1.00
H3144  H     0.81220   0.98865   0.40455   0.05300  Uiso   1.00
C3145  C     0.94823   0.75253   0.45608   0.05277  Uani   1.00
H3146  H     0.94300   0.75465   0.47178   0.06300  Uiso   1.00
C3147  C     0.89058   0.75565   0.45723   0.06813  Uani   1.00
H3148  H     0.89933   0.75990   0.47110   0.08200  Uiso   1.00
C3149  C     0.86472   0.75528   0.45730   0.07560  Uani   1.00
H3150  H     0.85602   0.75875   0.47138   0.09100  Uiso   1.00
N3151  N     0.96686   0.75400   0.30127   0.03357  Uani   1.00
N3152  N     0.77779   0.99837   0.32415   0.03837  Uani   1.00
C3153  C     0.94301   0.75620   0.29465   0.04437  Uani   1.00
H3154  H     0.93780   0.76135   0.27955   0.05300  Uiso   1.00
C3155  C     0.80178   0.99747   0.33108   0.05277  Uani   1.00
H3156  H     0.80700   0.99535   0.34678   0.06300  Uiso   1.00
C3157  C     0.85943   0.99435   0.33223   0.06813  Uani   1.00
H3158  H     0.85068   0.99010   0.34610   0.08200  Uiso   1.00
C3159  C     0.88528   0.99473   0.33230   0.07560  Uani   1.00
H3160  H     0.89398   0.99125   0.34638   0.09100  Uiso   1.00
N3161  N     0.99600   0.96686   0.36377   0.03357  Uani   1.00
N3162  N     0.75163   0.77779   0.38665   0.03837  Uani   1.00
C3163  C     0.99380   0.94301   0.35715   0.04437  Uani   1.00
H3164  H     0.98865   0.93780   0.34205   0.05300  Uiso   1.00
C3165  C     0.75253   0.80178   0.39358   0.05277  Uani   1.00
H3166  H     0.75465   0.80700   0.40928   0.06300  Uiso   1.00
C3167  C     0.75565   0.85943   0.39473   0.06813  Uani   1.00
H3168  H     0.75990   0.85068   0.40860   0.08200  Uiso   1.00
C3169  C     0.75528   0.88528   0.39480   0.07560  Uani   1.00
H3170  H     0.75875   0.89398   0.40888   0.09100  Uiso   1.00
N3171  N     0.75400   0.78314   0.48877   0.03357  Uani   1.00
N3172  N     0.99838   0.97221   0.26165   0.03837  Uani   1.00
C3173  C     0.75620   0.80699   0.48215   0.04437  Uani   1.00
H3174  H     0.76135   0.81220   0.46705   0.05300  Uiso   1.00
C3175  C     0.99748   0.94823   0.26857   0.05277  Uani   1.00
H3176  H     0.99535   0.94300   0.28428   0.06300  Uiso   1.00
C3177  C     0.99435   0.89058   0.26973   0.06813  Uani   1.00
H3178  H     0.99010   0.89933   0.28360   0.08200  Uiso   1.00
C3179  C     0.99473   0.86472   0.26980   0.07560  Uani   1.00
H3180  H     0.99125   0.85602   0.28388   0.09100  Uiso   1.00
Co3181 Co    0.99721   0.99721   0.34375   0.02543  Uani   1.00
Co3182 Co    0.75279   0.75279   0.46875   0.02543  Uani   1.00
Co3183 Co    0.75279   0.99721   0.40625   0.02543  Uani   1.00
Co3184 Co    0.99721   0.75279   0.28125   0.02543  Uani   1.00
C3185  C     0.81790   0.75000   0.31250   0.04747  Uani   1.00
C3186  C     0.92678   0.75000   0.31250   0.04137  Uani   1.00
C3187  C     0.89888   0.75000   0.31250   0.05083  Uani   1.00
C3188  C     0.84598   0.75000   0.31250   0.05433  Uani   1.00
C3189  C     0.93210   0.75000   0.43750   0.04747  Uani   1.00
C3190  C     0.82322   0.75000   0.43750   0.04137  Uani   1.00
C3191  C     0.85113   0.75000   0.43750   0.05083  Uani   1.00
C3192  C     0.90403   0.75000   0.43750   0.05433  Uani   1.00
C3193  C     0.75000   0.81790   0.37500   0.04747  Uani   1.00
C3194  C     0.75000   0.92678   0.37500   0.04137  Uani   1.00
C3195  C     0.75000   0.89888   0.37500   0.05083  Uani   1.00
C3196  C     0.75000   0.84598   0.37500   0.05433  Uani   1.00
C3197  C     0.75000   0.93210   0.25000   0.04747  Uani   1.00
C3198  C     0.75000   0.82322   0.25000   0.04137  Uani   1.00
C3199  C     0.75000   0.85112   0.25000   0.05083  Uani   1.00
C3200  C     0.75000   0.90402   0.25000   0.05433  Uani   1.00
N3201  N     0.21686   0.24600   0.57373   0.03357  Uani   1.00
N3202  N     0.02778   0.00163   0.55085   0.03837  Uani   1.00
C3203  C     0.19301   0.24380   0.58035   0.04437  Uani   1.00
H3204  H     0.18780   0.23865   0.59545   0.05300  Uiso   1.00
C3205  C     0.05177   0.00253   0.54393   0.05277  Uani   1.00
H3206  H     0.05700   0.00465   0.52823   0.06300  Uiso   1.00
C3207  C     0.10943   0.00565   0.54278   0.06813  Uani   1.00
H3208  H     0.10068   0.00990   0.52890   0.08200  Uiso   1.00
C3209  C     0.13528   0.00528   0.54270   0.07560  Uani   1.00
H3210  H     0.14398   0.00875   0.52863   0.09100  Uiso   1.00
N3211  N     0.03314   0.00400   0.69873   0.03357  Uani   1.00
N3212  N     0.22221   0.24837   0.67585   0.03837  Uani   1.00
C3213  C     0.05699   0.00620   0.70535   0.04437  Uani   1.00
H3214  H     0.06220   0.01135   0.72045   0.05300  Uiso   1.00
C3215  C     0.19823   0.24747   0.66893   0.05277  Uani   1.00
H3216  H     0.19300   0.24535   0.65323   0.06300  Uiso   1.00
C3217  C     0.14057   0.24435   0.66778   0.06813  Uani   1.00
H3218  H     0.14932   0.24010   0.65390   0.08200  Uiso   1.00
C3219  C     0.11472   0.24472   0.66770   0.07560  Uani   1.00
H3220  H     0.10602   0.24125   0.65363   0.09100  Uiso   1.00
N3221  N     0.00400   0.21686   0.63623   0.03357  Uani   1.00
N3222  N     0.24837   0.02779   0.61335   0.03837  Uani   1.00
C3223  C     0.00620   0.19301   0.64285   0.04437  Uani   1.00
H3224  H     0.01135   0.18780   0.65795   0.05300  Uiso   1.00
C3225  C     0.24748   0.05178   0.60643   0.05277  Uani   1.00
H3226  H     0.24535   0.05700   0.59073   0.06300  Uiso   1.00
C3227  C     0.24435   0.10943   0.60528   0.06813  Uani   1.00
H3228  H     0.24010   0.10068   0.59140   0.08200  Uiso   1.00
C3229  C     0.24473   0.13528   0.60520   0.07560  Uani   1.00
H3230  H     0.24125   0.14398   0.59113   0.09100  Uiso   1.00
N3231  N     0.24600   0.03314   0.51123   0.03357  Uani   1.00
N3232  N     0.00163   0.22221   0.73835   0.03837  Uani   1.00
C3233  C     0.24380   0.05699   0.51785   0.04437  Uani   1.00
H3234  H     0.23865   0.06220   0.53295   0.05300  Uiso   1.00
C3235  C     0.00253   0.19823   0.73143   0.05277  Uani   1.00
H3236  H     0.00465   0.19300   0.71573   0.06300  Uiso   1.00
C3237  C     0.00565   0.14058   0.73028   0.06813  Uani   1.00
H3238  H     0.00990   0.14933   0.71640   0.08200  Uiso   1.00
C3239  C     0.00528   0.11472   0.73020   0.07560  Uani   1.00
H3240  H     0.00875   0.10602   0.71613   0.09100  Uiso   1.00
N3241  N     0.03314   0.24600   0.67627   0.03357  Uani   1.00
N3242  N     0.22221   0.00163   0.69915   0.03837  Uani   1.00
C3243  C     0.05699   0.24380   0.66965   0.04437  Uani   1.00
H3244  H     0.06220   0.23865   0.65455   0.05300  Uiso   1.00
C3245  C     0.19823   0.00253   0.70608   0.05277  Uani   1.00
H3246  H     0.19300   0.00465   0.72178   0.06300  Uiso   1.00
C3247  C     0.14057   0.00565   0.70723   0.06813  Uani   1.00
H3248  H     0.14932   0.00990   0.72110   0.08200  Uiso   1.00
C3249  C     0.11472   0.00528   0.70730   0.07560  Uani   1.00
H3250  H     0.10602   0.00875   0.72138   0.09100  Uiso   1.00
N3251  N     0.21686   0.00400   0.55127   0.03357  Uani   1.00
N3252  N     0.02778   0.24837   0.57415   0.03837  Uani   1.00
C3253  C     0.19301   0.00620   0.54465   0.04437  Uani   1.00
H3254  H     0.18780   0.01135   0.52955   0.05300  Uiso   1.00
C3255  C     0.05177   0.24747   0.58108   0.05277  Uani   1.00
H3256  H     0.05700   0.24535   0.59678   0.06300  Uiso   1.00
C3257  C     0.10943   0.24435   0.58223   0.06813  Uani   1.00
H3258  H     0.10068   0.24010   0.59610   0.08200  Uiso   1.00
C3259  C     0.13528   0.24472   0.58230   0.07560  Uani   1.00
H3260  H     0.14398   0.24125   0.59638   0.09100  Uiso   1.00
N3261  N     0.24600   0.21686   0.61377   0.03357  Uani   1.00
N3262  N     0.00163   0.02779   0.63665   0.03837  Uani   1.00
C3263  C     0.24380   0.19301   0.60715   0.04437  Uani   1.00
H3264  H     0.23865   0.18780   0.59205   0.05300  Uiso   1.00
C3265  C     0.00253   0.05178   0.64358   0.05277  Uani   1.00
H3266  H     0.00465   0.05700   0.65928   0.06300  Uiso   1.00
C3267  C     0.00565   0.10943   0.64473   0.06813  Uani   1.00
H3268  H     0.00990   0.10068   0.65860   0.08200  Uiso   1.00
C3269  C     0.00528   0.13528   0.64480   0.07560  Uani   1.00
H3270  H     0.00875   0.14398   0.65888   0.09100  Uiso   1.00
N3271  N     0.00400   0.03314   0.73877   0.03357  Uani   1.00
N3272  N     0.24837   0.22221   0.51165   0.03837  Uani   1.00
C3273  C     0.00620   0.05699   0.73215   0.04437  Uani   1.00
H3274  H     0.01135   0.06220   0.71705   0.05300  Uiso   1.00
C3275  C     0.24748   0.19823   0.51858   0.05277  Uani   1.00
H3276  H     0.24535   0.19300   0.53428   0.06300  Uiso   1.00
C3277  C     0.24435   0.14058   0.51973   0.06813  Uani   1.00
H3278  H     0.24010   0.14933   0.53360   0.08200  Uiso   1.00
C3279  C     0.24473   0.11472   0.51980   0.07560  Uani   1.00
H3280  H     0.24125   0.10602   0.53388   0.09100  Uiso   1.00
Co3281 Co    0.24721   0.24721   0.59375   0.02543  Uani   1.00
Co3282 Co    0.00279   0.00279   0.71875   0.02543  Uani   1.00
Co3283 Co    0.00279   0.24721   0.65625   0.02543  Uani   1.00
Co3284 Co    0.24721   0.00279   0.53125   0.02543  Uani   1.00
C3285  C     0.06790   0.00000   0.56250   0.04747  Uani   1.00
C3286  C     0.17678   0.00000   0.56250   0.04137  Uani   1.00
C3287  C     0.14888   0.00000   0.56250   0.05083  Uani   1.00
C3288  C     0.09598   0.00000   0.56250   0.05433  Uani   1.00
C3289  C     0.18210   0.00000   0.68750   0.04747  Uani   1.00
C3290  C     0.07322   0.00000   0.68750   0.04137  Uani   1.00
C3291  C     0.10112   0.00000   0.68750   0.05083  Uani   1.00
C3292  C     0.15402   0.00000   0.68750   0.05433  Uani   1.00
C3293  C     0.00000   0.06790   0.62500   0.04747  Uani   1.00
C3294  C     0.00000   0.17678   0.62500   0.04137  Uani   1.00
C3295  C     0.00000   0.14888   0.62500   0.05083  Uani   1.00
C3296  C     0.00000   0.09598   0.62500   0.05433  Uani   1.00
C3297  C     0.00000   0.18210   0.50000   0.04747  Uani   1.00
C3298  C     0.00000   0.07322   0.50000   0.04137  Uani   1.00
C3299  C     0.00000   0.10112   0.50000   0.05083  Uani   1.00
C3300  C     0.00000   0.15402   0.50000   0.05433  Uani   1.00
N3301  N     0.46686   0.24600   0.57373   0.03357  Uani   1.00
N3302  N     0.27778   0.00163   0.55085   0.03837  Uani   1.00
C3303  C     0.44301   0.24380   0.58035   0.04437  Uani   1.00
H3304  H     0.43780   0.23865   0.59545   0.05300  Uiso   1.00
C3305  C     0.30177   0.00253   0.54393   0.05277  Uani   1.00
H3306  H     0.30700   0.00465   0.52823   0.06300  Uiso   1.00
C3307  C     0.35943   0.00565   0.54278   0.06813  Uani   1.00
H3308  H     0.35068   0.00990   0.52890   0.08200  Uiso   1.00
C3309  C     0.38528   0.00528   0.54270   0.07560  Uani   1.00
H3310  H     0.39398   0.00875   0.52863   0.09100  Uiso   1.00
N3311  N     0.28314   0.00400   0.69873   0.03357  Uani   1.00
N3312  N     0.47222   0.24837   0.67585   0.03837  Uani   1.00
C3313  C     0.30699   0.00620   0.70535   0.04437  Uani   1.00
H3314  H     0.31220   0.01135   0.72045   0.05300  Uiso   1.00
C3315  C     0.44822   0.24747   0.66893   0.05277  Uani   1.00
H3316  H     0.44300   0.24535   0.65323   0.06300  Uiso   1.00
C3317  C     0.39057   0.24435   0.66778   0.06813  Uani   1.00
H3318  H     0.39933   0.24010   0.65390   0.08200  Uiso   1.00
C3319  C     0.36472   0.24472   0.66770   0.07560  Uani   1.00
H3320  H     0.35602   0.24125   0.65363   0.09100  Uiso   1.00
N3321  N     0.25400   0.21686   0.63623   0.03357  Uani   1.00
N3322  N     0.49838   0.02779   0.61335   0.03837  Uani   1.00
C3323  C     0.25620   0.19301   0.64285   0.04437  Uani   1.00
H3324  H     0.26135   0.18780   0.65795   0.05300  Uiso   1.00
C3325  C     0.49748   0.05178   0.60643   0.05277  Uani   1.00
H3326  H     0.49535   0.05700   0.59073   0.06300  Uiso   1.00
C3327  C     0.49435   0.10943   0.60528   0.06813  Uani   1.00
H3328  H     0.49010   0.10068   0.59140   0.08200  Uiso   1.00
C3329  C     0.49473   0.13528   0.60520   0.07560  Uani   1.00
H3330  H     0.49125   0.14398   0.59113   0.09100  Uiso   1.00
N3331  N     0.49600   0.03314   0.51123   0.03357  Uani   1.00
N3332  N     0.25163   0.22221   0.73835   0.03837  Uani   1.00
C3333  C     0.49380   0.05699   0.51785   0.04437  Uani   1.00
H3334  H     0.48865   0.06220   0.53295   0.05300  Uiso   1.00
C3335  C     0.25253   0.19823   0.73143   0.05277  Uani   1.00
H3336  H     0.25465   0.19300   0.71573   0.06300  Uiso   1.00
C3337  C     0.25565   0.14058   0.73028   0.06813  Uani   1.00
H3338  H     0.25990   0.14933   0.71640   0.08200  Uiso   1.00
C3339  C     0.25528   0.11472   0.73020   0.07560  Uani   1.00
H3340  H     0.25875   0.10602   0.71613   0.09100  Uiso   1.00
N3341  N     0.28314   0.24600   0.67627   0.03357  Uani   1.00
N3342  N     0.47222   0.00163   0.69915   0.03837  Uani   1.00
C3343  C     0.30699   0.24380   0.66965   0.04437  Uani   1.00
H3344  H     0.31220   0.23865   0.65455   0.05300  Uiso   1.00
C3345  C     0.44822   0.00253   0.70608   0.05277  Uani   1.00
H3346  H     0.44300   0.00465   0.72178   0.06300  Uiso   1.00
C3347  C     0.39057   0.00565   0.70723   0.06813  Uani   1.00
H3348  H     0.39933   0.00990   0.72110   0.08200  Uiso   1.00
C3349  C     0.36472   0.00528   0.70730   0.07560  Uani   1.00
H3350  H     0.35602   0.00875   0.72138   0.09100  Uiso   1.00
N3351  N     0.46686   0.00400   0.55127   0.03357  Uani   1.00
N3352  N     0.27778   0.24837   0.57415   0.03837  Uani   1.00
C3353  C     0.44301   0.00620   0.54465   0.04437  Uani   1.00
H3354  H     0.43780   0.01135   0.52955   0.05300  Uiso   1.00
C3355  C     0.30177   0.24747   0.58108   0.05277  Uani   1.00
H3356  H     0.30700   0.24535   0.59678   0.06300  Uiso   1.00
C3357  C     0.35943   0.24435   0.58223   0.06813  Uani   1.00
H3358  H     0.35068   0.24010   0.59610   0.08200  Uiso   1.00
C3359  C     0.38528   0.24472   0.58230   0.07560  Uani   1.00
H3360  H     0.39398   0.24125   0.59638   0.09100  Uiso   1.00
N3361  N     0.49600   0.21686   0.61377   0.03357  Uani   1.00
N3362  N     0.25163   0.02779   0.63665   0.03837  Uani   1.00
C3363  C     0.49380   0.19301   0.60715   0.04437  Uani   1.00
H3364  H     0.48865   0.18780   0.59205   0.05300  Uiso   1.00
C3365  C     0.25253   0.05178   0.64358   0.05277  Uani   1.00
H3366  H     0.25465   0.05700   0.65928   0.06300  Uiso   1.00
C3367  C     0.25565   0.10943   0.64473   0.06813  Uani   1.00
H3368  H     0.25990   0.10068   0.65860   0.08200  Uiso   1.00
C3369  C     0.25528   0.13528   0.64480   0.07560  Uani   1.00
H3370  H     0.25875   0.14398   0.65888   0.09100  Uiso   1.00
N3371  N     0.25400   0.03314   0.73877   0.03357  Uani   1.00
N3372  N     0.49838   0.22221   0.51165   0.03837  Uani   1.00
C3373  C     0.25620   0.05699   0.73215   0.04437  Uani   1.00
H3374  H     0.26135   0.06220   0.71705   0.05300  Uiso   1.00
C3375  C     0.49748   0.19823   0.51858   0.05277  Uani   1.00
H3376  H     0.49535   0.19300   0.53428   0.06300  Uiso   1.00
C3377  C     0.49435   0.14058   0.51973   0.06813  Uani   1.00
H3378  H     0.49010   0.14933   0.53360   0.08200  Uiso   1.00
C3379  C     0.49473   0.11472   0.51980   0.07560  Uani   1.00
H3380  H     0.49125   0.10602   0.53388   0.09100  Uiso   1.00
Co3381 Co    0.49721   0.24721   0.59375   0.02543  Uani   1.00
Co3382 Co    0.25279   0.00279   0.71875   0.02543  Uani   1.00
Co3383 Co    0.25279   0.24721   0.65625   0.02543  Uani   1.00
Co3384 Co    0.49721   0.00279   0.53125   0.02543  Uani   1.00
C3385  C     0.31790   0.00000   0.56250   0.04747  Uani   1.00
C3386  C     0.42678   0.00000   0.56250   0.04137  Uani   1.00
C3387  C     0.39888   0.00000   0.56250   0.05083  Uani   1.00
C3388  C     0.34598   0.00000   0.56250   0.05433  Uani   1.00
C3389  C     0.43210   0.00000   0.68750   0.04747  Uani   1.00
C3390  C     0.32322   0.00000   0.68750   0.04137  Uani   1.00
C3391  C     0.35112   0.00000   0.68750   0.05083  Uani   1.00
C3392  C     0.40403   0.00000   0.68750   0.05433  Uani   1.00
C3393  C     0.25000   0.06790   0.62500   0.04747  Uani   1.00
C3394  C     0.25000   0.17678   0.62500   0.04137  Uani   1.00
C3395  C     0.25000   0.14888   0.62500   0.05083  Uani   1.00
C3396  C     0.25000   0.09598   0.62500   0.05433  Uani   1.00
C3397  C     0.25000   0.18210   0.50000   0.04747  Uani   1.00
C3398  C     0.25000   0.07322   0.50000   0.04137  Uani   1.00
C3399  C     0.25000   0.10112   0.50000   0.05083  Uani   1.00
C3400  C     0.25000   0.15402   0.50000   0.05433  Uani   1.00
N3401  N     0.71686   0.24600   0.57373   0.03357  Uani   1.00
N3402  N     0.52779   0.00163   0.55085   0.03837  Uani   1.00
C3403  C     0.69301   0.24380   0.58035   0.04437  Uani   1.00
H3404  H     0.68780   0.23865   0.59545   0.05300  Uiso   1.00
C3405  C     0.55178   0.00253   0.54393   0.05277  Uani   1.00
H3406  H     0.55700   0.00465   0.52823   0.06300  Uiso   1.00
C3407  C     0.60943   0.00565   0.54278   0.06813  Uani   1.00
H3408  H     0.60068   0.00990   0.52890   0.08200  Uiso   1.00
C3409  C     0.63528   0.00528   0.54270   0.07560  Uani   1.00
H3410  H     0.64398   0.00875   0.52863   0.09100  Uiso   1.00
N3411  N     0.53314   0.00400   0.69873   0.03357  Uani   1.00
N3412  N     0.72222   0.24837   0.67585   0.03837  Uani   1.00
C3413  C     0.55699   0.00620   0.70535   0.04437  Uani   1.00
H3414  H     0.56220   0.01135   0.72045   0.05300  Uiso   1.00
C3415  C     0.69823   0.24747   0.66893   0.05277  Uani   1.00
H3416  H     0.69300   0.24535   0.65323   0.06300  Uiso   1.00
C3417  C     0.64058   0.24435   0.66778   0.06813  Uani   1.00
H3418  H     0.64933   0.24010   0.65390   0.08200  Uiso   1.00
C3419  C     0.61473   0.24472   0.66770   0.07560  Uani   1.00
H3420  H     0.60603   0.24125   0.65363   0.09100  Uiso   1.00
N3421  N     0.50400   0.21686   0.63623   0.03357  Uani   1.00
N3422  N     0.74837   0.02779   0.61335   0.03837  Uani   1.00
C3423  C     0.50620   0.19301   0.64285   0.04437  Uani   1.00
H3424  H     0.51135   0.18780   0.65795   0.05300  Uiso   1.00
C3425  C     0.74748   0.05178   0.60643   0.05277  Uani   1.00
H3426  H     0.74535   0.05700   0.59073   0.06300  Uiso   1.00
C3427  C     0.74435   0.10943   0.60528   0.06813  Uani   1.00
H3428  H     0.74010   0.10068   0.59140   0.08200  Uiso   1.00
C3429  C     0.74473   0.13528   0.60520   0.07560  Uani   1.00
H3430  H     0.74125   0.14398   0.59113   0.09100  Uiso   1.00
N3431  N     0.74600   0.03314   0.51123   0.03357  Uani   1.00
N3432  N     0.50163   0.22221   0.73835   0.03837  Uani   1.00
C3433  C     0.74380   0.05699   0.51785   0.04437  Uani   1.00
H3434  H     0.73865   0.06220   0.53295   0.05300  Uiso   1.00
C3435  C     0.50253   0.19823   0.73143   0.05277  Uani   1.00
H3436  H     0.50465   0.19300   0.71573   0.06300  Uiso   1.00
C3437  C     0.50565   0.14058   0.73028   0.06813  Uani   1.00
H3438  H     0.50990   0.14933   0.71640   0.08200  Uiso   1.00
C3439  C     0.50528   0.11472   0.73020   0.07560  Uani   1.00
H3440  H     0.50875   0.10602   0.71613   0.09100  Uiso   1.00
N3441  N     0.53314   0.24600   0.67627   0.03357  Uani   1.00
N3442  N     0.72222   0.00163   0.69915   0.03837  Uani   1.00
C3443  C     0.55699   0.24380   0.66965   0.04437  Uani   1.00
H3444  H     0.56220   0.23865   0.65455   0.05300  Uiso   1.00
C3445  C     0.69823   0.00253   0.70608   0.05277  Uani   1.00
H3446  H     0.69300   0.00465   0.72178   0.06300  Uiso   1.00
C3447  C     0.64058   0.00565   0.70723   0.06813  Uani   1.00
H3448  H     0.64933   0.00990   0.72110   0.08200  Uiso   1.00
C3449  C     0.61473   0.00528   0.70730   0.07560  Uani   1.00
H3450  H     0.60603   0.00875   0.72138   0.09100  Uiso   1.00
N3451  N     0.71686   0.00400   0.55127   0.03357  Uani   1.00
N3452  N     0.52779   0.24837   0.57415   0.03837  Uani   1.00
C3453  C     0.69301   0.00620   0.54465   0.04437  Uani   1.00
H3454  H     0.68780   0.01135   0.52955   0.05300  Uiso   1.00
C3455  C     0.55178   0.24747   0.58108   0.05277  Uani   1.00
H3456  H     0.55700   0.24535   0.59678   0.06300  Uiso   1.00
C3457  C     0.60943   0.24435   0.58223   0.06813  Uani   1.00
H3458  H     0.60068   0.24010   0.59610   0.08200  Uiso   1.00
C3459  C     0.63528   0.24472   0.58230   0.07560  Uani   1.00
H3460  H     0.64398   0.24125   0.59638   0.09100  Uiso   1.00
N3461  N     0.74600   0.21686   0.61377   0.03357  Uani   1.00
N3462  N     0.50163   0.02779   0.63665   0.03837  Uani   1.00
C3463  C     0.74380   0.19301   0.60715   0.04437  Uani   1.00
H3464  H     0.73865   0.18780   0.59205   0.05300  Uiso   1.00
C3465  C     0.50253   0.05178   0.64358   0.05277  Uani   1.00
H3466  H     0.50465   0.05700   0.65928   0.06300  Uiso   1.00
C3467  C     0.50565   0.10943   0.64473   0.06813  Uani   1.00
H3468  H     0.50990   0.10068   0.65860   0.08200  Uiso   1.00
C3469  C     0.50528   0.13528   0.64480   0.07560  Uani   1.00
H3470  H     0.50875   0.14398   0.65888   0.09100  Uiso   1.00
N3471  N     0.50400   0.03314   0.73877   0.03357  Uani   1.00
N3472  N     0.74837   0.22221   0.51165   0.03837  Uani   1.00
C3473  C     0.50620   0.05699   0.73215   0.04437  Uani   1.00
H3474  H     0.51135   0.06220   0.71705   0.05300  Uiso   1.00
C3475  C     0.74748   0.19823   0.51858   0.05277  Uani   1.00
H3476  H     0.74535   0.19300   0.53428   0.06300  Uiso   1.00
C3477  C     0.74435   0.14058   0.51973   0.06813  Uani   1.00
H3478  H     0.74010   0.14933   0.53360   0.08200  Uiso   1.00
C3479  C     0.74473   0.11472   0.51980   0.07560  Uani   1.00
H3480  H     0.74125   0.10602   0.53388   0.09100  Uiso   1.00
Co3481 Co    0.74721   0.24721   0.59375   0.02543  Uani   1.00
Co3482 Co    0.50279   0.00279   0.71875   0.02543  Uani   1.00
Co3483 Co    0.50279   0.24721   0.65625   0.02543  Uani   1.00
Co3484 Co    0.74721   0.00279   0.53125   0.02543  Uani   1.00
C3485  C     0.56790   0.00000   0.56250   0.04747  Uani   1.00
C3486  C     0.67678   0.00000   0.56250   0.04137  Uani   1.00
C3487  C     0.64888   0.00000   0.56250   0.05083  Uani   1.00
C3488  C     0.59598   0.00000   0.56250   0.05433  Uani   1.00
C3489  C     0.68210   0.00000   0.68750   0.04747  Uani   1.00
C3490  C     0.57322   0.00000   0.68750   0.04137  Uani   1.00
C3491  C     0.60112   0.00000   0.68750   0.05083  Uani   1.00
C3492  C     0.65402   0.00000   0.68750   0.05433  Uani   1.00
C3493  C     0.50000   0.06790   0.62500   0.04747  Uani   1.00
C3494  C     0.50000   0.17678   0.62500   0.04137  Uani   1.00
C3495  C     0.50000   0.14888   0.62500   0.05083  Uani   1.00
C3496  C     0.50000   0.09598   0.62500   0.05433  Uani   1.00
C3497  C     0.50000   0.18210   0.50000   0.04747  Uani   1.00
C3498  C     0.50000   0.07322   0.50000   0.04137  Uani   1.00
C3499  C     0.50000   0.10112   0.50000   0.05083  Uani   1.00
C3500  C     0.50000   0.15402   0.50000   0.05433  Uani   1.00
N3501  N     0.96686   0.24600   0.57373   0.03357  Uani   1.00
N3502  N     0.77779   0.00163   0.55085   0.03837  Uani   1.00
C3503  C     0.94301   0.24380   0.58035   0.04437  Uani   1.00
H3504  H     0.93780   0.23865   0.59545   0.05300  Uiso   1.00
C3505  C     0.80178   0.00253   0.54393   0.05277  Uani   1.00
H3506  H     0.80700   0.00465   0.52823   0.06300  Uiso   1.00
C3507  C     0.85943   0.00565   0.54278   0.06813  Uani   1.00
H3508  H     0.85068   0.00990   0.52890   0.08200  Uiso   1.00
C3509  C     0.88528   0.00528   0.54270   0.07560  Uani   1.00
H3510  H     0.89398   0.00875   0.52863   0.09100  Uiso   1.00
N3511  N     0.78314   0.00400   0.69873   0.03357  Uani   1.00
N3512  N     0.97222   0.24837   0.67585   0.03837  Uani   1.00
C3513  C     0.80699   0.00620   0.70535   0.04437  Uani   1.00
H3514  H     0.81220   0.01135   0.72045   0.05300  Uiso   1.00
C3515  C     0.94823   0.24747   0.66893   0.05277  Uani   1.00
H3516  H     0.94300   0.24535   0.65323   0.06300  Uiso   1.00
C3517  C     0.89058   0.24435   0.66778   0.06813  Uani   1.00
H3518  H     0.89933   0.24010   0.65390   0.08200  Uiso   1.00
C3519  C     0.86472   0.24472   0.66770   0.07560  Uani   1.00
H3520  H     0.85602   0.24125   0.65363   0.09100  Uiso   1.00
N3521  N     0.75400   0.21686   0.63623   0.03357  Uani   1.00
N3522  N     0.99838   0.02779   0.61335   0.03837  Uani   1.00
C3523  C     0.75620   0.19301   0.64285   0.04437  Uani   1.00
H3524  H     0.76135   0.18780   0.65795   0.05300  Uiso   1.00
C3525  C     0.99748   0.05178   0.60643   0.05277  Uani   1.00
H3526  H     0.99535   0.05700   0.59073   0.06300  Uiso   1.00
C3527  C     0.99435   0.10943   0.60528   0.06813  Uani   1.00
H3528  H     0.99010   0.10068   0.59140   0.08200  Uiso   1.00
C3529  C     0.99473   0.13528   0.60520   0.07560  Uani   1.00
H3530  H     0.99125   0.14398   0.59113   0.09100  Uiso   1.00
N3531  N     0.99600   0.03314   0.51123   0.03357  Uani   1.00
N3532  N     0.75163   0.22221   0.73835   0.03837  Uani   1.00
C3533  C     0.99380   0.05699   0.51785   0.04437  Uani   1.00
H3534  H     0.98865   0.06220   0.53295   0.05300  Uiso   1.00
C3535  C     0.75253   0.19823   0.73143   0.05277  Uani   1.00
H3536  H     0.75465   0.19300   0.71573   0.06300  Uiso   1.00
C3537  C     0.75565   0.14058   0.73028   0.06813  Uani   1.00
H3538  H     0.75990   0.14933   0.71640   0.08200  Uiso   1.00
C3539  C     0.75528   0.11472   0.73020   0.07560  Uani   1.00
H3540  H     0.75875   0.10602   0.71613   0.09100  Uiso   1.00
N3541  N     0.78314   0.24600   0.67627   0.03357  Uani   1.00
N3542  N     0.97222   0.00163   0.69915   0.03837  Uani   1.00
C3543  C     0.80699   0.24380   0.66965   0.04437  Uani   1.00
H3544  H     0.81220   0.23865   0.65455   0.05300  Uiso   1.00
C3545  C     0.94823   0.00253   0.70608   0.05277  Uani   1.00
H3546  H     0.94300   0.00465   0.72178   0.06300  Uiso   1.00
C3547  C     0.89058   0.00565   0.70723   0.06813  Uani   1.00
H3548  H     0.89933   0.00990   0.72110   0.08200  Uiso   1.00
C3549  C     0.86472   0.00528   0.70730   0.07560  Uani   1.00
H3550  H     0.85602   0.00875   0.72138   0.09100  Uiso   1.00
N3551  N     0.96686   0.00400   0.55127   0.03357  Uani   1.00
N3552  N     0.77779   0.24837   0.57415   0.03837  Uani   1.00
C3553  C     0.94301   0.00620   0.54465   0.04437  Uani   1.00
H3554  H     0.93780   0.01135   0.52955   0.05300  Uiso   1.00
C3555  C     0.80178   0.24747   0.58108   0.05277  Uani   1.00
H3556  H     0.80700   0.24535   0.59678   0.06300  Uiso   1.00
C3557  C     0.85943   0.24435   0.58223   0.06813  Uani   1.00
H3558  H     0.85068   0.24010   0.59610   0.08200  Uiso   1.00
C3559  C     0.88528   0.24472   0.58230   0.07560  Uani   1.00
H3560  H     0.89398   0.24125   0.59638   0.09100  Uiso   1.00
N3561  N     0.99600   0.21686   0.61377   0.03357  Uani   1.00
N3562  N     0.75163   0.02779   0.63665   0.03837  Uani   1.00
C3563  C     0.99380   0.19301   0.60715   0.04437  Uani   1.00
H3564  H     0.98865   0.18780   0.59205   0.05300  Uiso   1.00
C3565  C     0.75253   0.05178   0.64358   0.05277  Uani   1.00
H3566  H     0.75465   0.05700   0.65928   0.06300  Uiso   1.00
C3567  C     0.75565   0.10943   0.64473   0.06813  Uani   1.00
H3568  H     0.75990   0.10068   0.65860   0.08200  Uiso   1.00
C3569  C     0.75528   0.13528   0.64480   0.07560  Uani   1.00
H3570  H     0.75875   0.14398   0.65888   0.09100  Uiso   1.00
N3571  N     0.75400   0.03314   0.73877   0.03357  Uani   1.00
N3572  N     0.99838   0.22221   0.51165   0.03837  Uani   1.00
C3573  C     0.75620   0.05699   0.73215   0.04437  Uani   1.00
H3574  H     0.76135   0.06220   0.71705   0.05300  Uiso   1.00
C3575  C     0.99748   0.19823   0.51858   0.05277  Uani   1.00
H3576  H     0.99535   0.19300   0.53428   0.06300  Uiso   1.00
C3577  C     0.99435   0.14058   0.51973   0.06813  Uani   1.00
H3578  H     0.99010   0.14933   0.53360   0.08200  Uiso   1.00
C3579  C     0.99473   0.11472   0.51980   0.07560  Uani   1.00
H3580  H     0.99125   0.10602   0.53388   0.09100  Uiso   1.00
Co3581 Co    0.99721   0.24721   0.59375   0.02543  Uani   1.00
Co3582 Co    0.75279   0.00279   0.71875   0.02543  Uani   1.00
Co3583 Co    0.75279   0.24721   0.65625   0.02543  Uani   1.00
Co3584 Co    0.99721   0.00279   0.53125   0.02543  Uani   1.00
C3585  C     0.81790   0.00000   0.56250   0.04747  Uani   1.00
C3586  C     0.92678   0.00000   0.56250   0.04137  Uani   1.00
C3587  C     0.89888   0.00000   0.56250   0.05083  Uani   1.00
C3588  C     0.84598   0.00000   0.56250   0.05433  Uani   1.00
C3589  C     0.93210   0.00000   0.68750   0.04747  Uani   1.00
C3590  C     0.82322   0.00000   0.68750   0.04137  Uani   1.00
C3591  C     0.85113   0.00000   0.68750   0.05083  Uani   1.00
C3592  C     0.90403   0.00000   0.68750   0.05433  Uani   1.00
C3593  C     0.75000   0.06790   0.62500   0.04747  Uani   1.00
C3594  C     0.75000   0.17678   0.62500   0.04137  Uani   1.00
C3595  C     0.75000   0.14888   0.62500   0.05083  Uani   1.00
C3596  C     0.75000   0.09598   0.62500   0.05433  Uani   1.00
C3597  C     0.75000   0.18210   0.50000   0.04747  Uani   1.00
C3598  C     0.75000   0.07322   0.50000   0.04137  Uani   1.00
C3599  C     0.75000   0.10112   0.50000   0.05083  Uani   1.00
C3600  C     0.75000   0.15402   0.50000   0.05433  Uani   1.00
N3601  N     0.21686   0.49600   0.57373   0.03357  Uani   1.00
N3602  N     0.02778   0.25163   0.55085   0.03837  Uani   1.00
C3603  C     0.19301   0.49380   0.58035   0.04437  Uani   1.00
H3604  H     0.18780   0.48865   0.59545   0.05300  Uiso   1.00
C3605  C     0.05177   0.25253   0.54393   0.05277  Uani   1.00
H3606  H     0.05700   0.25465   0.52823   0.06300  Uiso   1.00
C3607  C     0.10943   0.25565   0.54278   0.06813  Uani   1.00
H3608  H     0.10068   0.25990   0.52890   0.08200  Uiso   1.00
C3609  C     0.13528   0.25528   0.54270   0.07560  Uani   1.00
H3610  H     0.14398   0.25875   0.52863   0.09100  Uiso   1.00
N3611  N     0.03314   0.25400   0.69873   0.03357  Uani   1.00
N3612  N     0.22221   0.49837   0.67585   0.03837  Uani   1.00
C3613  C     0.05699   0.25620   0.70535   0.04437  Uani   1.00
H3614  H     0.06220   0.26135   0.72045   0.05300  Uiso   1.00
C3615  C     0.19823   0.49747   0.66893   0.05277  Uani   1.00
H3616  H     0.19300   0.49535   0.65323   0.06300  Uiso   1.00
C3617  C     0.14057   0.49435   0.66778   0.06813  Uani   1.00
H3618  H     0.14932   0.49010   0.65390   0.08200  Uiso   1.00
C3619  C     0.11472   0.49472   0.66770   0.07560  Uani   1.00
H3620  H     0.10602   0.49125   0.65363   0.09100  Uiso   1.00
N3621  N     0.00400   0.46686   0.63623   0.03357  Uani   1.00
N3622  N     0.24837   0.27779   0.61335   0.03837  Uani   1.00
C3623  C     0.00620   0.44301   0.64285   0.04437  Uani   1.00
H3624  H     0.01135   0.43780   0.65795   0.05300  Uiso   1.00
C3625  C     0.24748   0.30178   0.60643   0.05277  Uani   1.00
H3626  H     0.24535   0.30700   0.59073   0.06300  Uiso   1.00
C3627  C     0.24435   0.35943   0.60528   0.06813  Uani   1.00
H3628  H     0.24010   0.35068   0.59140   0.08200  Uiso   1.00
C3629  C     0.24473   0.38528   0.60520   0.07560  Uani   1.00
H3630  H     0.24125   0.39398   0.59113   0.09100  Uiso   1.00
N3631  N     0.24600   0.28314   0.51123   0.03357  Uani   1.00
N3632  N     0.00163   0.47221   0.73835   0.03837  Uani   1.00
C3633  C     0.24380   0.30699   0.51785   0.04437  Uani   1.00
H3634  H     0.23865   0.31220   0.53295   0.05300  Uiso   1.00
C3635  C     0.00253   0.44823   0.73143   0.05277  Uani   1.00
H3636  H     0.00465   0.44300   0.71573   0.06300  Uiso   1.00
C3637  C     0.00565   0.39058   0.73028   0.06813  Uani   1.00
H3638  H     0.00990   0.39933   0.71640   0.08200  Uiso   1.00
C3639  C     0.00528   0.36472   0.73020   0.07560  Uani   1.00
H3640  H     0.00875   0.35602   0.71613   0.09100  Uiso   1.00
N3641  N     0.03314   0.49600   0.67627   0.03357  Uani   1.00
N3642  N     0.22221   0.25163   0.69915   0.03837  Uani   1.00
C3643  C     0.05699   0.49380   0.66965   0.04437  Uani   1.00
H3644  H     0.06220   0.48865   0.65455   0.05300  Uiso   1.00
C3645  C     0.19823   0.25253   0.70608   0.05277  Uani   1.00
H3646  H     0.19300   0.25465   0.72178   0.06300  Uiso   1.00
C3647  C     0.14057   0.25565   0.70723   0.06813  Uani   1.00
H3648  H     0.14932   0.25990   0.72110   0.08200  Uiso   1.00
C3649  C     0.11472   0.25528   0.70730   0.07560  Uani   1.00
H3650  H     0.10602   0.25875   0.72138   0.09100  Uiso   1.00
N3651  N     0.21686   0.25400   0.55127   0.03357  Uani   1.00
N3652  N     0.02778   0.49837   0.57415   0.03837  Uani   1.00
C3653  C     0.19301   0.25620   0.54465   0.04437  Uani   1.00
H3654  H     0.18780   0.26135   0.52955   0.05300  Uiso   1.00
C3655  C     0.05177   0.49747   0.58108   0.05277  Uani   1.00
H3656  H     0.05700   0.49535   0.59678   0.06300  Uiso   1.00
C3657  C     0.10943   0.49435   0.58223   0.06813  Uani   1.00
H3658  H     0.10068   0.49010   0.59610   0.08200  Uiso   1.00
C3659  C     0.13528   0.49472   0.58230   0.07560  Uani   1.00
H3660  H     0.14398   0.49125   0.59638   0.09100  Uiso   1.00
N3661  N     0.24600   0.46686   0.61377   0.03357  Uani   1.00
N3662  N     0.00163   0.27779   0.63665   0.03837  Uani   1.00
C3663  C     0.24380   0.44301   0.60715   0.04437  Uani   1.00
H3664  H     0.23865   0.43780   0.59205   0.05300  Uiso   1.00
C3665  C     0.00253   0.30178   0.64358   0.05277  Uani   1.00
H3666  H     0.00465   0.30700   0.65928   0.06300  Uiso   1.00
C3667  C     0.00565   0.35943   0.64473   0.06813  Uani   1.00
H3668  H     0.00990   0.35068   0.65860   0.08200  Uiso   1.00
C3669  C     0.00528   0.38528   0.64480   0.07560  Uani   1.00
H3670  H     0.00875   0.39398   0.65888   0.09100  Uiso   1.00
N3671  N     0.00400   0.28314   0.73877   0.03357  Uani   1.00
N3672  N     0.24837   0.47221   0.51165   0.03837  Uani   1.00
C3673  C     0.00620   0.30699   0.73215   0.04437  Uani   1.00
H3674  H     0.01135   0.31220   0.71705   0.05300  Uiso   1.00
C3675  C     0.24748   0.44823   0.51858   0.05277  Uani   1.00
H3676  H     0.24535   0.44300   0.53428   0.06300  Uiso   1.00
C3677  C     0.24435   0.39058   0.51973   0.06813  Uani   1.00
H3678  H     0.24010   0.39933   0.53360   0.08200  Uiso   1.00
C3679  C     0.24473   0.36472   0.51980   0.07560  Uani   1.00
H3680  H     0.24125   0.35602   0.53388   0.09100  Uiso   1.00
Co3681 Co    0.24721   0.49721   0.59375   0.02543  Uani   1.00
Co3682 Co    0.00279   0.25279   0.71875   0.02543  Uani   1.00
Co3683 Co    0.00279   0.49721   0.65625   0.02543  Uani   1.00
Co3684 Co    0.24721   0.25279   0.53125   0.02543  Uani   1.00
C3685  C     0.06790   0.25000   0.56250   0.04747  Uani   1.00
C3686  C     0.17678   0.25000   0.56250   0.04137  Uani   1.00
C3687  C     0.14888   0.25000   0.56250   0.05083  Uani   1.00
C3688  C     0.09598   0.25000   0.56250   0.05433  Uani   1.00
C3689  C     0.18210   0.25000   0.68750   0.04747  Uani   1.00
C3690  C     0.07322   0.25000   0.68750   0.04137  Uani   1.00
C3691  C     0.10112   0.25000   0.68750   0.05083  Uani   1.00
C3692  C     0.15402   0.25000   0.68750   0.05433  Uani   1.00
C3693  C     0.00000   0.31790   0.62500   0.04747  Uani   1.00
C3694  C     0.00000   0.42678   0.62500   0.04137  Uani   1.00
C3695  C     0.00000   0.39888   0.62500   0.05083  Uani   1.00
C3696  C     0.00000   0.34598   0.62500   0.05433  Uani   1.00
C3697  C     0.00000   0.43210   0.50000   0.04747  Uani   1.00
C3698  C     0.00000   0.32322   0.50000   0.04137  Uani   1.00
C3699  C     0.00000   0.35112   0.50000   0.05083  Uani   1.00
C3700  C     0.00000   0.40402   0.50000   0.05433  Uani   1.00
N3701  N     0.46686   0.49600   0.57373   0.03357  Uani   1.00
N3702  N     0.27778   0.25163   0.55085   0.03837  Uani   1.00
C3703  C     0.44301   0.49380   0.58035   0.04437  Uani   1.00
H3704  H     0.43780   0.48865   0.59545   0.05300  Uiso   1.00
C3705  C     0.30177   0.25253   0.54393   0.05277  Uani   1.00
H3706  H     0.30700   0.25465   0.52823   0.06300  Uiso   1.00
C3707  C     0.35943   0.25565   0.54278   0.06813  Uani   1.00
H3708  H     0.35068   0.25990   0.52890   0.08200  Uiso   1.00
C3709  C     0.38528   0.25528   0.54270   0.07560  Uani   1.00
H3710  H     0.39398   0.25875   0.52863   0.09100  Uiso   1.00
N3711  N     0.28314   0.25400   0.69873   0.03357  Uani   1.00
N3712  N     0.47222   0.49837   0.67585   0.03837  Uani   1.00
C3713  C     0.30699   0.25620   0.70535   0.04437  Uani   1.00
H3714  H     0.31220   0.26135   0.72045   0.05300  Uiso   1.00
C3715  C     0.44822   0.49747   0.66893   0.05277  Uani   1.00
H3716  H     0.44300   0.49535   0.65323   0.06300  Uiso   1.00
C3717  C     0.39057   0.49435   0.66778   0.06813  Uani   1.00
H3718  H     0.39933   0.49010   0.65390   0.08200  Uiso   1.00
C3719  C     0.36472   0.49472   0.66770   0.07560  Uani   1.00
H3720  H     0.35602   0.49125   0.65363   0.09100  Uiso   1.00
N3721  N     0.25400   0.46686   0.63623   0.03357  Uani   1.00
N3722  N     0.49838   0.27779   0.61335   0.03837  Uani   1.00
C3723  C     0.25620   0.44301   0.64285   0.04437  Uani   1.00
H3724  H     0.26135   0.43780   0.65795   0.05300  Uiso   1.00
C3725  C     0.49748   0.30178   0.60643   0.05277  Uani   1.00
H3726  H     0.49535   0.30700   0.59073   0.06300  Uiso   1.00
C3727  C     0.49435   0.35943   0.60528   0.06813  Uani   1.00
H3728  H     0.49010   0.35068   0.59140   0.08200  Uiso   1.00
C3729  C     0.49473   0.38528   0.60520   0.07560  Uani   1.00
H3730  H     0.49125   0.39398   0.59113   0.09100  Uiso   1.00
N3731  N     0.49600   0.28314   0.51123   0.03357  Uani   1.00
N3732  N     0.25163   0.47221   0.73835   0.03837  Uani   1.00
C3733  C     0.49380   0.30699   0.51785   0.04437  Uani   1.00
H3734  H     0.48865   0.31220   0.53295   0.05300  Uiso   1.00
C3735  C     0.25253   0.44823   0.73143   0.05277  Uani   1.00
H3736  H     0.25465   0.44300   0.71573   0.06300  Uiso   1.00
C3737  C     0.25565   0.39058   0.73028   0.06813  Uani   1.00
H3738  H     0.25990   0.39933   0.71640   0.08200  Uiso   1.00
C3739  C     0.25528   0.36472   0.73020   0.07560  Uani   1.00
H3740  H     0.25875   0.35602   0.71613   0.09100  Uiso   1.00
N3741  N     0.28314   0.49600   0.67627   0.03357  Uani   1.00
N3742  N     0.47222   0.25163   0.69915   0.03837  Uani   1.00
C3743  C     0.30699   0.49380   0.66965   0.04437  Uani   1.00
H3744  H     0.31220   0.48865   0.65455   0.05300  Uiso   1.00
C3745  C     0.44822   0.25253   0.70608   0.05277  Uani   1.00
H3746  H     0.44300   0.25465   0.72178   0.06300  Uiso   1.00
C3747  C     0.39057   0.25565   0.70723   0.06813  Uani   1.00
H3748  H     0.39933   0.25990   0.72110   0.08200  Uiso   1.00
C3749  C     0.36472   0.25528   0.70730   0.07560  Uani   1.00
H3750  H     0.35602   0.25875   0.72138   0.09100  Uiso   1.00
N3751  N     0.46686   0.25400   0.55127   0.03357  Uani   1.00
N3752  N     0.27778   0.49837   0.57415   0.03837  Uani   1.00
C3753  C     0.44301   0.25620   0.54465   0.04437  Uani   1.00
H3754  H     0.43780   0.26135   0.52955   0.05300  Uiso   1.00
C3755  C     0.30177   0.49747   0.58108   0.05277  Uani   1.00
H3756  H     0.30700   0.49535   0.59678   0.06300  Uiso   1.00
C3757  C     0.35943   0.49435   0.58223   0.06813  Uani   1.00
H3758  H     0.35068   0.49010   0.59610   0.08200  Uiso   1.00
C3759  C     0.38528   0.49472   0.58230   0.07560  Uani   1.00
H3760  H     0.39398   0.49125   0.59638   0.09100  Uiso   1.00
N3761  N     0.49600   0.46686   0.61377   0.03357  Uani   1.00
N3762  N     0.25163   0.27779   0.63665   0.03837  Uani   1.00
C3763  C     0.49380   0.44301   0.60715   0.04437  Uani   1.00
H3764  H     0.48865   0.43780   0.59205   0.05300  Uiso   1.00
C3765  C     0.25253   0.30178   0.64358   0.05277  Uani   1.00
H3766  H     0.25465   0.30700   0.65928   0.06300  Uiso   1.00
C3767  C     0.25565   0.35943   0.64473   0.06813  Uani   1.00
H3768  H     0.25990   0.35068   0.65860   0.08200  Uiso   1.00
C3769  C     0.25528   0.38528   0.64480   0.07560  Uani   1.00
H3770  H     0.25875   0.39398   0.65888   0.09100  Uiso   1.00
N3771  N     0.25400   0.28314   0.73877   0.03357  Uani   1.00
N3772  N     0.49838   0.47221   0.51165   0.03837  Uani   1.00
C3773  C     0.25620   0.30699   0.73215   0.04437  Uani   1.00
H3774  H     0.26135   0.31220   0.71705   0.05300  Uiso   1.00
C3775  C     0.49748   0.44823   0.51858   0.05277  Uani   1.00
H3776  H     0.49535   0.44300   0.53428   0.06300  Uiso   1.00
C3777  C     0.49435   0.39058   0.51973   0.06813  Uani   1.00
H3778  H     0.49010   0.39933   0.53360   0.08200  Uiso   1.00
C3779  C     0.49473   0.36472   0.51980   0.07560  Uani   1.00
H3780  H     0.49125   0.35602   0.53388   0.09100  Uiso   1.00
Co3781 Co    0.49721   0.49721   0.59375   0.02543  Uani   1.00
Co3782 Co    0.25279   0.25279   0.71875   0.02543  Uani   1.00
Co3783 Co    0.25279   0.49721   0.65625   0.02543  Uani   1.00
Co3784 Co    0.49721   0.25279   0.53125   0.02543  Uani   1.00
C3785  C     0.31790   0.25000   0.56250   0.04747  Uani   1.00
C3786  C     0.42678   0.25000   0.56250   0.04137  Uani   1.00
C3787  C     0.39888   0.25000   0.56250   0.05083  Uani   1.00
C3788  C     0.34598   0.25000   0.56250   0.05433  Uani   1.00
C3789  C     0.43210   0.25000   0.68750   0.04747  Uani   1.00
C3790  C     0.32322   0.25000   0.68750   0.04137  Uani   1.00
C3791  C     0.35112   0.25000   0.68750   0.05083  Uani   1.00
C3792  C     0.40403   0.25000   0.68750   0.05433  Uani   1.00
C3793  C     0.25000   0.31790   0.62500   0.04747  Uani   1.00
C3794  C     0.25000   0.42678   0.62500   0.04137  Uani   1.00
C3795  C     0.25000   0.39888   0.62500   0.05083  Uani   1.00
C3796  C     0.25000   0.34598   0.62500   0.05433  Uani   1.00
C3797  C     0.25000   0.43210   0.50000   0.04747  Uani   1.00
C3798  C     0.25000   0.32322   0.50000   0.04137  Uani   1.00
C3799  C     0.25000   0.35112   0.50000   0.05083  Uani   1.00
C3800  C     0.25000   0.40402   0.50000   0.05433  Uani   1.00
N3801  N     0.71686   0.49600   0.57373   0.03357  Uani   1.00
N3802  N     0.52779   0.25163   0.55085   0.03837  Uani   1.00
C3803  C     0.69301   0.49380   0.58035   0.04437  Uani   1.00
H3804  H     0.68780   0.48865   0.59545   0.05300  Uiso   1.00
C3805  C     0.55178   0.25253   0.54393   0.05277  Uani   1.00
H3806  H     0.55700   0.25465   0.52823   0.06300  Uiso   1.00
C3807  C     0.60943   0.25565   0.54278   0.06813  Uani   1.00
H3808  H     0.60068   0.25990   0.52890   0.08200  Uiso   1.00
C3809  C     0.63528   0.25528   0.54270   0.07560  Uani   1.00
H3810  H     0.64398   0.25875   0.52863   0.09100  Uiso   1.00
N3811  N     0.53314   0.25400   0.69873   0.03357  Uani   1.00
N3812  N     0.72222   0.49837   0.67585   0.03837  Uani   1.00
C3813  C     0.55699   0.25620   0.70535   0.04437  Uani   1.00
H3814  H     0.56220   0.26135   0.72045   0.05300  Uiso   1.00
C3815  C     0.69823   0.49747   0.66893   0.05277  Uani   1.00
H3816  H     0.69300   0.49535   0.65323   0.06300  Uiso   1.00
C3817  C     0.64058   0.49435   0.66778   0.06813  Uani   1.00
H3818  H     0.64933   0.49010   0.65390   0.08200  Uiso   1.00
C3819  C     0.61473   0.49472   0.66770   0.07560  Uani   1.00
H3820  H     0.60603   0.49125   0.65363   0.09100  Uiso   1.00
N3821  N     0.50400   0.46686   0.63623   0.03357  Uani   1.00
N3822  N     0.74837   0.27779   0.61335   0.03837  Uani   1.00
C3823  C     0.50620   0.44301   0.64285   0.04437  Uani   1.00
H3824  H     0.51135   0.43780   0.65795   0.05300  Uiso   1.00
C3825  C     0.74748   0.30178   0.60643   0.05277  Uani   1.00
H3826  H     0.74535   0.30700   0.59073   0.06300  Uiso   1.00
C3827  C     0.74435   0.35943   0.60528   0.06813  Uani   1.00
H3828  H     0.74010   0.35068   0.59140   0.08200  Uiso   1.00
C3829  C     0.74473   0.38528   0.60520   0.07560  Uani   1.00
H3830  H     0.74125   0.39398   0.59113   0.09100  Uiso   1.00
N3831  N     0.74600   0.28314   0.51123   0.03357  Uani   1.00
N3832  N     0.50163   0.47221   0.73835   0.03837  Uani   1.00
C3833  C     0.74380   0.30699   0.51785   0.04437  Uani   1.00
H3834  H     0.73865   0.31220   0.53295   0.05300  Uiso   1.00
C3835  C     0.50253   0.44823   0.73143   0.05277  Uani   1.00
H3836  H     0.50465   0.44300   0.71573   0.06300  Uiso   1.00
C3837  C     0.50565   0.39058   0.73028   0.06813  Uani   1.00
H3838  H     0.50990   0.39933   0.71640   0.08200  Uiso   1.00
C3839  C     0.50528   0.36472   0.73020   0.07560  Uani   1.00
H3840  H     0.50875   0.35602   0.71613   0.09100  Uiso   1.00
N3841  N     0.53314   0.49600   0.67627   0.03357  Uani   1.00
N3842  N     0.72222   0.25163   0.69915   0.03837  Uani   1.00
C3843  C     0.55699   0.49380   0.66965   0.04437  Uani   1.00
H3844  H     0.56220   0.48865   0.65455   0.05300  Uiso   1.00
C3845  C     0.69823   0.25253   0.70608   0.05277  Uani   1.00
H3846  H     0.69300   0.25465   0.72178   0.06300  Uiso   1.00
C3847  C     0.64058   0.25565   0.70723   0.06813  Uani   1.00
H3848  H     0.64933   0.25990   0.72110   0.08200  Uiso   1.00
C3849  C     0.61473   0.25528   0.70730   0.07560  Uani   1.00
H3850  H     0.60603   0.25875   0.72138   0.09100  Uiso   1.00
N3851  N     0.71686   0.25400   0.55127   0.03357  Uani   1.00
N3852  N     0.52779   0.49837   0.57415   0.03837  Uani   1.00
C3853  C     0.69301   0.25620   0.54465   0.04437  Uani   1.00
H3854  H     0.68780   0.26135   0.52955   0.05300  Uiso   1.00
C3855  C     0.55178   0.49747   0.58108   0.05277  Uani   1.00
H3856  H     0.55700   0.49535   0.59678   0.06300  Uiso   1.00
C3857  C     0.60943   0.49435   0.58223   0.06813  Uani   1.00
H3858  H     0.60068   0.49010   0.59610   0.08200  Uiso   1.00
C3859  C     0.63528   0.49472   0.58230   0.07560  Uani   1.00
H3860  H     0.64398   0.49125   0.59638   0.09100  Uiso   1.00
N3861  N     0.74600   0.46686   0.61377   0.03357  Uani   1.00
N3862  N     0.50163   0.27779   0.63665   0.03837  Uani   1.00
C3863  C     0.74380   0.44301   0.60715   0.04437  Uani   1.00
H3864  H     0.73865   0.43780   0.59205   0.05300  Uiso   1.00
C3865  C     0.50253   0.30178   0.64358   0.05277  Uani   1.00
H3866  H     0.50465   0.30700   0.65928   0.06300  Uiso   1.00
C3867  C     0.50565   0.35943   0.64473   0.06813  Uani   1.00
H3868  H     0.50990   0.35068   0.65860   0.08200  Uiso   1.00
C3869  C     0.50528   0.38528   0.64480   0.07560  Uani   1.00
H3870  H     0.50875   0.39398   0.65888   0.09100  Uiso   1.00
N3871  N     0.50400   0.28314   0.73877   0.03357  Uani   1.00
N3872  N     0.74837   0.47221   0.51165   0.03837  Uani   1.00
C3873  C     0.50620   0.30699   0.73215   0.04437  Uani   1.00
H3874  H     0.51135   0.31220   0.71705   0.05300  Uiso   1.00
C3875  C     0.74748   0.44823   0.51858   0.05277  Uani   1.00
H3876  H     0.74535   0.44300   0.53428   0.06300  Uiso   1.00
C3877  C     0.74435   0.39058   0.51973   0.06813  Uani   1.00
H3878  H     0.74010   0.39933   0.53360   0.08200  Uiso   1.00
C3879  C     0.74473   0.36472   0.51980   0.07560  Uani   1.00
H3880  H     0.74125   0.35602   0.53388   0.09100  Uiso   1.00
Co3881 Co    0.74721   0.49721   0.59375   0.02543  Uani   1.00
Co3882 Co    0.50279   0.25279   0.71875   0.02543  Uani   1.00
Co3883 Co    0.50279   0.49721   0.65625   0.02543  Uani   1.00
Co3884 Co    0.74721   0.25279   0.53125   0.02543  Uani   1.00
C3885  C     0.56790   0.25000   0.56250   0.04747  Uani   1.00
C3886  C     0.67678   0.25000   0.56250   0.04137  Uani   1.00
C3887  C     0.64888   0.25000   0.56250   0.05083  Uani   1.00
C3888  C     0.59598   0.25000   0.56250   0.05433  Uani   1.00
C3889  C     0.68210   0.25000   0.68750   0.04747  Uani   1.00
C3890  C     0.57322   0.25000   0.68750   0.04137  Uani   1.00
C3891  C     0.60112   0.25000   0.68750   0.05083  Uani   1.00
C3892  C     0.65402   0.25000   0.68750   0.05433  Uani   1.00
C3893  C     0.50000   0.31790   0.62500   0.04747  Uani   1.00
C3894  C     0.50000   0.42678   0.62500   0.04137  Uani   1.00
C3895  C     0.50000   0.39888   0.62500   0.05083  Uani   1.00
C3896  C     0.50000   0.34598   0.62500   0.05433  Uani   1.00
C3897  C     0.50000   0.43210   0.50000   0.04747  Uani   1.00
C3898  C     0.50000   0.32322   0.50000   0.04137  Uani   1.00
C3899  C     0.50000   0.35112   0.50000   0.05083  Uani   1.00
C3900  C     0.50000   0.40402   0.50000   0.05433  Uani   1.00
N3901  N     0.96686   0.49600   0.57373   0.03357  Uani   1.00
N3902  N     0.77779   0.25163   0.55085   0.03837  Uani   1.00
C3903  C     0.94301   0.49380   0.58035   0.04437  Uani   1.00
H3904  H     0.93780   0.48865   0.59545   0.05300  Uiso   1.00
C3905  C     0.80178   0.25253   0.54393   0.05277  Uani   1.00
H3906  H     0.80700   0.25465   0.52823   0.06300  Uiso   1.00
C3907  C     0.85943   0.25565   0.54278   0.06813  Uani   1.00
H3908  H     0.85068   0.25990   0.52890   0.08200  Uiso   1.00
C3909  C     0.88528   0.25528   0.54270   0.07560  Uani   1.00
H3910  H     0.89398   0.25875   0.52863   0.09100  Uiso   1.00
N3911  N     0.78314   0.25400   0.69873   0.03357  Uani   1.00
N3912  N     0.97222   0.49837   0.67585   0.03837  Uani   1.00
C3913  C     0.80699   0.25620   0.70535   0.04437  Uani   1.00
H3914  H     0.81220   0.26135   0.72045   0.05300  Uiso   1.00
C3915  C     0.94823   0.49747   0.66893   0.05277  Uani   1.00
H3916  H     0.94300   0.49535   0.65323   0.06300  Uiso   1.00
C3917  C     0.89058   0.49435   0.66778   0.06813  Uani   1.00
H3918  H     0.89933   0.49010   0.65390   0.08200  Uiso   1.00
C3919  C     0.86472   0.49472   0.66770   0.07560  Uani   1.00
H3920  H     0.85602   0.49125   0.65363   0.09100  Uiso   1.00
N3921  N     0.75400   0.46686   0.63623   0.03357  Uani   1.00
N3922  N     0.99838   0.27779   0.61335   0.03837  Uani   1.00
C3923  C     0.75620   0.44301   0.64285   0.04437  Uani   1.00
H3924  H     0.76135   0.43780   0.65795   0.05300  Uiso   1.00
C3925  C     0.99748   0.30178   0.60643   0.05277  Uani   1.00
H3926  H     0.99535   0.30700   0.59073   0.06300  Uiso   1.00
C3927  C     0.99435   0.35943   0.60528   0.06813  Uani   1.00
H3928  H     0.99010   0.35068   0.59140   0.08200  Uiso   1.00
C3929  C     0.99473   0.38528   0.60520   0.07560  Uani   1.00
H3930  H     0.99125   0.39398   0.59113   0.09100  Uiso   1.00
N3931  N     0.99600   0.28314   0.51123   0.03357  Uani   1.00
N3932  N     0.75163   0.47221   0.73835   0.03837  Uani   1.00
C3933  C     0.99380   0.30699   0.51785   0.04437  Uani   1.00
H3934  H     0.98865   0.31220   0.53295   0.05300  Uiso   1.00
C3935  C     0.75253   0.44823   0.73143   0.05277  Uani   1.00
H3936  H     0.75465   0.44300   0.71573   0.06300  Uiso   1.00
C3937  C     0.75565   0.39058   0.73028   0.06813  Uani   1.00
H3938  H     0.75990   0.39933   0.71640   0.08200  Uiso   1.00
C3939  C     0.75528   0.36472   0.73020   0.07560  Uani   1.00
H3940  H     0.75875   0.35602   0.71613   0.09100  Uiso   1.00
N3941  N     0.78314   0.49600   0.67627   0.03357  Uani   1.00
N3942  N     0.97222   0.25163   0.69915   0.03837  Uani   1.00
C3943  C     0.80699   0.49380   0.66965   0.04437  Uani   1.00
H3944  H     0.81220   0.48865   0.65455   0.05300  Uiso   1.00
C3945  C     0.94823   0.25253   0.70608   0.05277  Uani   1.00
H3946  H     0.94300   0.25465   0.72178   0.06300  Uiso   1.00
C3947  C     0.89058   0.25565   0.70723   0.06813  Uani   1.00
H3948  H     0.89933   0.25990   0.72110   0.08200  Uiso   1.00
C3949  C     0.86472   0.25528   0.70730   0.07560  Uani   1.00
H3950  H     0.85602   0.25875   0.72138   0.09100  Uiso   1.00
N3951  N     0.96686   0.25400   0.55127   0.03357  Uani   1.00
N3952  N     0.77779   0.49837   0.57415   0.03837  Uani   1.00
C3953  C     0.94301   0.25620   0.54465   0.04437  Uani   1.00
H3954  H     0.93780   0.26135   0.52955   0.05300  Uiso   1.00
C3955  C     0.80178   0.49747   0.58108   0.05277  Uani   1.00
H3956  H     0.80700   0.49535   0.59678   0.06300  Uiso   1.00
C3957  C     0.85943   0.49435   0.58223   0.06813  Uani   1.00
H3958  H     0.85068   0.49010   0.59610   0.08200  Uiso   1.00
C3959  C     0.88528   0.49472   0.58230   0.07560  Uani   1.00
H3960  H     0.89398   0.49125   0.59638   0.09100  Uiso   1.00
N3961  N     0.99600   0.46686   0.61377   0.03357  Uani   1.00
N3962  N     0.75163   0.27779   0.63665   0.03837  Uani   1.00
C3963  C     0.99380   0.44301   0.60715   0.04437  Uani   1.00
H3964  H     0.98865   0.43780   0.59205   0.05300  Uiso   1.00
C3965  C     0.75253   0.30178   0.64358   0.05277  Uani   1.00
H3966  H     0.75465   0.30700   0.65928   0.06300  Uiso   1.00
C3967  C     0.75565   0.35943   0.64473   0.06813  Uani   1.00
H3968  H     0.75990   0.35068   0.65860   0.08200  Uiso   1.00
C3969  C     0.75528   0.38528   0.64480   0.07560  Uani   1.00
H3970  H     0.75875   0.39398   0.65888   0.09100  Uiso   1.00
N3971  N     0.75400   0.28314   0.73877   0.03357  Uani   1.00
N3972  N     0.99838   0.47221   0.51165   0.03837  Uani   1.00
C3973  C     0.75620   0.30699   0.73215   0.04437  Uani   1.00
H3974  H     0.76135   0.31220   0.71705   0.05300  Uiso   1.00
C3975  C     0.99748   0.44823   0.51858   0.05277  Uani   1.00
H3976  H     0.99535   0.44300   0.53428   0.06300  Uiso   1.00
C3977  C     0.99435   0.39058   0.51973   0.06813  Uani   1.00
H3978  H     0.99010   0.39933   0.53360   0.08200  Uiso   1.00
C3979  C     0.99473   0.36472   0.51980   0.07560  Uani   1.00
H3980  H     0.99125   0.35602   0.53388   0.09100  Uiso   1.00
Co3981 Co    0.99721   0.49721   0.59375   0.02543  Uani   1.00
Co3982 Co    0.75279   0.25279   0.71875   0.02543  Uani   1.00
Co3983 Co    0.75279   0.49721   0.65625   0.02543  Uani   1.00
Co3984 Co    0.99721   0.25279   0.53125   0.02543  Uani   1.00
C3985  C     0.81790   0.25000   0.56250   0.04747  Uani   1.00
C3986  C     0.92678   0.25000   0.56250   0.04137  Uani   1.00
C3987  C     0.89888   0.25000   0.56250   0.05083  Uani   1.00
C3988  C     0.84598   0.25000   0.56250   0.05433  Uani   1.00
C3989  C     0.93210   0.25000   0.68750   0.04747  Uani   1.00
C3990  C     0.82322   0.25000   0.68750   0.04137  Uani   1.00
C3991  C     0.85113   0.25000   0.68750   0.05083  Uani   1.00
C3992  C     0.90403   0.25000   0.68750   0.05433  Uani   1.00
C3993  C     0.75000   0.31790   0.62500   0.04747  Uani   1.00
C3994  C     0.75000   0.42678   0.62500   0.04137  Uani   1.00
C3995  C     0.75000   0.39888   0.62500   0.05083  Uani   1.00
C3996  C     0.75000   0.34598   0.62500   0.05433  Uani   1.00
C3997  C     0.75000   0.43210   0.50000   0.04747  Uani   1.00
C3998  C     0.75000   0.32322   0.50000   0.04137  Uani   1.00
C3999  C     0.75000   0.35112   0.50000   0.05083  Uani   1.00
C4000  C     0.75000   0.40402   0.50000   0.05433  Uani   1.00
N4001  N     0.21686   0.74600   0.57373   0.03357  Uani   1.00
N4002  N     0.02778   0.50163   0.55085   0.03837  Uani   1.00
C4003  C     0.19301   0.74380   0.58035   0.04437  Uani   1.00
H4004  H     0.18780   0.73865   0.59545   0.05300  Uiso   1.00
C4005  C     0.05177   0.50253   0.54393   0.05277  Uani   1.00
H4006  H     0.05700   0.50465   0.52823   0.06300  Uiso   1.00
C4007  C     0.10943   0.50565   0.54278   0.06813  Uani   1.00
H4008  H     0.10068   0.50990   0.52890   0.08200  Uiso   1.00
C4009  C     0.13528   0.50528   0.54270   0.07560  Uani   1.00
H4010  H     0.14398   0.50875   0.52863   0.09100  Uiso   1.00
N4011  N     0.03314   0.50400   0.69873   0.03357  Uani   1.00
N4012  N     0.22221   0.74837   0.67585   0.03837  Uani   1.00
C4013  C     0.05699   0.50620   0.70535   0.04437  Uani   1.00
H4014  H     0.06220   0.51135   0.72045   0.05300  Uiso   1.00
C4015  C     0.19823   0.74747   0.66893   0.05277  Uani   1.00
H4016  H     0.19300   0.74535   0.65323   0.06300  Uiso   1.00
C4017  C     0.14057   0.74435   0.66778   0.06813  Uani   1.00
H4018  H     0.14932   0.74010   0.65390   0.08200  Uiso   1.00
C4019  C     0.11472   0.74472   0.66770   0.07560  Uani   1.00
H4020  H     0.10602   0.74125   0.65363   0.09100  Uiso   1.00
N4021  N     0.00400   0.71686   0.63623   0.03357  Uani   1.00
N4022  N     0.24837   0.52779   0.61335   0.03837  Uani   1.00
C4023  C     0.00620   0.69301   0.64285   0.04437  Uani   1.00
H4024  H     0.01135   0.68780   0.65795   0.05300  Uiso   1.00
C4025  C     0.24748   0.55178   0.60643   0.05277  Uani   1.00
H4026  H     0.24535   0.55700   0.59073   0.06300  Uiso   1.00
C4027  C     0.24435   0.60943   0.60528   0.06813  Uani   1.00
H4028  H     0.24010   0.60068   0.59140   0.08200  Uiso   1.00
C4029  C     0.24473   0.63528   0.60520   0.07560  Uani   1.00
H4030  H     0.24125   0.64398   0.59113   0.09100  Uiso   1.00
N4031  N     0.24600   0.53314   0.51123   0.03357  Uani   1.00
N4032  N     0.00163   0.72221   0.73835   0.03837  Uani   1.00
C4033  C     0.24380   0.55699   0.51785   0.04437  Uani   1.00
H4034  H     0.23865   0.56220   0.53295   0.05300  Uiso   1.00
C4035  C     0.00253   0.69823   0.73143   0.05277  Uani   1.00
H4036  H     0.00465   0.69300   0.71573   0.06300  Uiso   1.00
C4037  C     0.00565   0.64058   0.73028   0.06813  Uani   1.00
H4038  H     0.00990   0.64933   0.71640   0.08200  Uiso   1.00
C4039  C     0.00528   0.61472   0.73020   0.07560  Uani   1.00
H4040  H     0.00875   0.60602   0.71613   0.09100  Uiso   1.00
N4041  N     0.03314   0.74600   0.67627   0.03357  Uani   1.00
N4042  N     0.22221   0.50163   0.69915   0.03837  Uani   1.00
C4043  C     0.05699   0.74380   0.66965   0.04437  Uani   1.00
H4044  H     0.06220   0.73865   0.65455   0.05300  Uiso   1.00
C4045  C     0.19823   0.50253   0.70608   0.05277  Uani   1.00
H4046  H     0.19300   0.50465   0.72178   0.06300  Uiso   1.00
C4047  C     0.14057   0.50565   0.70723   0.06813  Uani   1.00
H4048  H     0.14932   0.50990   0.72110   0.08200  Uiso   1.00
C4049  C     0.11472   0.50528   0.70730   0.07560  Uani   1.00
H4050  H     0.10602   0.50875   0.72138   0.09100  Uiso   1.00
N4051  N     0.21686   0.50400   0.55127   0.03357  Uani   1.00
N4052  N     0.02778   0.74837   0.57415   0.03837  Uani   1.00
C4053  C     0.19301   0.50620   0.54465   0.04437  Uani   1.00
H4054  H     0.18780   0.51135   0.52955   0.05300  Uiso   1.00
C4055  C     0.05177   0.74747   0.58108   0.05277  Uani   1.00
H4056  H     0.05700   0.74535   0.59678   0.06300  Uiso   1.00
C4057  C     0.10943   0.74435   0.58223   0.06813  Uani   1.00
H4058  H     0.10068   0.74010   0.59610   0.08200  Uiso   1.00
C4059  C     0.13528   0.74472   0.58230   0.07560  Uani   1.00
H4060  H     0.14398   0.74125   0.59638   0.09100  Uiso   1.00
N4061  N     0.24600   0.71686   0.61377   0.03357  Uani   1.00
N4062  N     0.00163   0.52779   0.63665   0.03837  Uani   1.00
C4063  C     0.24380   0.69301   0.60715   0.04437  Uani   1.00
H4064  H     0.23865   0.68780   0.59205   0.05300  Uiso   1.00
C4065  C     0.00253   0.55178   0.64358   0.05277  Uani   1.00
H4066  H     0.00465   0.55700   0.65928   0.06300  Uiso   1.00
C4067  C     0.00565   0.60943   0.64473   0.06813  Uani   1.00
H4068  H     0.00990   0.60068   0.65860   0.08200  Uiso   1.00
C4069  C     0.00528   0.63528   0.64480   0.07560  Uani   1.00
H4070  H     0.00875   0.64398   0.65888   0.09100  Uiso   1.00
N4071  N     0.00400   0.53314   0.73877   0.03357  Uani   1.00
N4072  N     0.24837   0.72221   0.51165   0.03837  Uani   1.00
C4073  C     0.00620   0.55699   0.73215   0.04437  Uani   1.00
H4074  H     0.01135   0.56220   0.71705   0.05300  Uiso   1.00
C4075  C     0.24748   0.69823   0.51858   0.05277  Uani   1.00
H4076  H     0.24535   0.69300   0.53428   0.06300  Uiso   1.00
C4077  C     0.24435   0.64058   0.51973   0.06813  Uani   1.00
H4078  H     0.24010   0.64933   0.53360   0.08200  Uiso   1.00
C4079  C     0.24473   0.61472   0.51980   0.07560  Uani   1.00
H4080  H     0.24125   0.60602   0.53388   0.09100  Uiso   1.00
Co4081 Co    0.24721   0.74721   0.59375   0.02543  Uani   1.00
Co4082 Co    0.00279   0.50279   0.71875   0.02543  Uani   1.00
Co4083 Co    0.00279   0.74721   0.65625   0.02543  Uani   1.00
Co4084 Co    0.24721   0.50279   0.53125   0.02543  Uani   1.00
C4085  C     0.06790   0.50000   0.56250   0.04747  Uani   1.00
C4086  C     0.17678   0.50000   0.56250   0.04137  Uani   1.00
C4087  C     0.14888   0.50000   0.56250   0.05083  Uani   1.00
C4088  C     0.09598   0.50000   0.56250   0.05433  Uani   1.00
C4089  C     0.18210   0.50000   0.68750   0.04747  Uani   1.00
C4090  C     0.07322   0.50000   0.68750   0.04137  Uani   1.00
C4091  C     0.10112   0.50000   0.68750   0.05083  Uani   1.00
C4092  C     0.15402   0.50000   0.68750   0.05433  Uani   1.00
C4093  C     0.00000   0.56790   0.62500   0.04747  Uani   1.00
C4094  C     0.00000   0.67678   0.62500   0.04137  Uani   1.00
C4095  C     0.00000   0.64888   0.62500   0.05083  Uani   1.00
C4096  C     0.00000   0.59598   0.62500   0.05433  Uani   1.00
C4097  C     0.00000   0.68210   0.50000   0.04747  Uani   1.00
C4098  C     0.00000   0.57322   0.50000   0.04137  Uani   1.00
C4099  C     0.00000   0.60112   0.50000   0.05083  Uani   1.00
C4100  C     0.00000   0.65402   0.50000   0.05433  Uani   1.00
N4101  N     0.46686   0.74600   0.57373   0.03357  Uani   1.00
N4102  N     0.27778   0.50163   0.55085   0.03837  Uani   1.00
C4103  C     0.44301   0.74380   0.58035   0.04437  Uani   1.00
H4104  H     0.43780   0.73865   0.59545   0.05300  Uiso   1.00
C4105  C     0.30177   0.50253   0.54393   0.05277  Uani   1.00
H4106  H     0.30700   0.50465   0.52823   0.06300  Uiso   1.00
C4107  C     0.35943   0.50565   0.54278   0.06813  Uani   1.00
H4108  H     0.35068   0.50990   0.52890   0.08200  Uiso   1.00
C4109  C     0.38528   0.50528   0.54270   0.07560  Uani   1.00
H4110  H     0.39398   0.50875   0.52863   0.09100  Uiso   1.00
N4111  N     0.28314   0.50400   0.69873   0.03357  Uani   1.00
N4112  N     0.47222   0.74837   0.67585   0.03837  Uani   1.00
C4113  C     0.30699   0.50620   0.70535   0.04437  Uani   1.00
H4114  H     0.31220   0.51135   0.72045   0.05300  Uiso   1.00
C4115  C     0.44822   0.74747   0.66893   0.05277  Uani   1.00
H4116  H     0.44300   0.74535   0.65323   0.06300  Uiso   1.00
C4117  C     0.39057   0.74435   0.66778   0.06813  Uani   1.00
H4118  H     0.39933   0.74010   0.65390   0.08200  Uiso   1.00
C4119  C     0.36472   0.74472   0.66770   0.07560  Uani   1.00
H4120  H     0.35602   0.74125   0.65363   0.09100  Uiso   1.00
N4121  N     0.25400   0.71686   0.63623   0.03357  Uani   1.00
N4122  N     0.49838   0.52779   0.61335   0.03837  Uani   1.00
C4123  C     0.25620   0.69301   0.64285   0.04437  Uani   1.00
H4124  H     0.26135   0.68780   0.65795   0.05300  Uiso   1.00
C4125  C     0.49748   0.55178   0.60643   0.05277  Uani   1.00
H4126  H     0.49535   0.55700   0.59073   0.06300  Uiso   1.00
C4127  C     0.49435   0.60943   0.60528   0.06813  Uani   1.00
H4128  H     0.49010   0.60068   0.59140   0.08200  Uiso   1.00
C4129  C     0.49473   0.63528   0.60520   0.07560  Uani   1.00
H4130  H     0.49125   0.64398   0.59113   0.09100  Uiso   1.00
N4131  N     0.49600   0.53314   0.51123   0.03357  Uani   1.00
N4132  N     0.25163   0.72221   0.73835   0.03837  Uani   1.00
C4133  C     0.49380   0.55699   0.51785   0.04437  Uani   1.00
H4134  H     0.48865   0.56220   0.53295   0.05300  Uiso   1.00
C4135  C     0.25253   0.69823   0.73143   0.05277  Uani   1.00
H4136  H     0.25465   0.69300   0.71573   0.06300  Uiso   1.00
C4137  C     0.25565   0.64058   0.73028   0.06813  Uani   1.00
H4138  H     0.25990   0.64933   0.71640   0.08200  Uiso   1.00
C4139  C     0.25528   0.61472   0.73020   0.07560  Uani   1.00
H4140  H     0.25875   0.60602   0.71613   0.09100  Uiso   1.00
N4141  N     0.28314   0.74600   0.67627   0.03357  Uani   1.00
N4142  N     0.47222   0.50163   0.69915   0.03837  Uani   1.00
C4143  C     0.30699   0.74380   0.66965   0.04437  Uani   1.00
H4144  H     0.31220   0.73865   0.65455   0.05300  Uiso   1.00
C4145  C     0.44822   0.50253   0.70608   0.05277  Uani   1.00
H4146  H     0.44300   0.50465   0.72178   0.06300  Uiso   1.00
C4147  C     0.39057   0.50565   0.70723   0.06813  Uani   1.00
H4148  H     0.39933   0.50990   0.72110   0.08200  Uiso   1.00
C4149  C     0.36472   0.50528   0.70730   0.07560  Uani   1.00
H4150  H     0.35602   0.50875   0.72138   0.09100  Uiso   1.00
N4151  N     0.46686   0.50400   0.55127   0.03357  Uani   1.00
N4152  N     0.27778   0.74837   0.57415   0.03837  Uani   1.00
C4153  C     0.44301   0.50620   0.54465   0.04437  Uani   1.00
H4154  H     0.43780   0.51135   0.52955   0.05300  Uiso   1.00
C4155  C     0.30177   0.74747   0.58108   0.05277  Uani   1.00
H4156  H     0.30700   0.74535   0.59678   0.06300  Uiso   1.00
C4157  C     0.35943   0.74435   0.58223   0.06813  Uani   1.00
H4158  H     0.35068   0.74010   0.59610   0.08200  Uiso   1.00
C4159  C     0.38528   0.74472   0.58230   0.07560  Uani   1.00
H4160  H     0.39398   0.74125   0.59638   0.09100  Uiso   1.00
N4161  N     0.49600   0.71686   0.61377   0.03357  Uani   1.00
N4162  N     0.25163   0.52779   0.63665   0.03837  Uani   1.00
C4163  C     0.49380   0.69301   0.60715   0.04437  Uani   1.00
H4164  H     0.48865   0.68780   0.59205   0.05300  Uiso   1.00
C4165  C     0.25253   0.55178   0.64358   0.05277  Uani   1.00
H4166  H     0.25465   0.55700   0.65928   0.06300  Uiso   1.00
C4167  C     0.25565   0.60943   0.64473   0.06813  Uani   1.00
H4168  H     0.25990   0.60068   0.65860   0.08200  Uiso   1.00
C4169  C     0.25528   0.63528   0.64480   0.07560  Uani   1.00
H4170  H     0.25875   0.64398   0.65888   0.09100  Uiso   1.00
N4171  N     0.25400   0.53314   0.73877   0.03357  Uani   1.00
N4172  N     0.49838   0.72221   0.51165   0.03837  Uani   1.00
C4173  C     0.25620   0.55699   0.73215   0.04437  Uani   1.00
H4174  H     0.26135   0.56220   0.71705   0.05300  Uiso   1.00
C4175  C     0.49748   0.69823   0.51858   0.05277  Uani   1.00
H4176  H     0.49535   0.69300   0.53428   0.06300  Uiso   1.00
C4177  C     0.49435   0.64058   0.51973   0.06813  Uani   1.00
H4178  H     0.49010   0.64933   0.53360   0.08200  Uiso   1.00
C4179  C     0.49473   0.61472   0.51980   0.07560  Uani   1.00
H4180  H     0.49125   0.60602   0.53388   0.09100  Uiso   1.00
Co4181 Co    0.49721   0.74721   0.59375   0.02543  Uani   1.00
Co4182 Co    0.25279   0.50279   0.71875   0.02543  Uani   1.00
Co4183 Co    0.25279   0.74721   0.65625   0.02543  Uani   1.00
Co4184 Co    0.49721   0.50279   0.53125   0.02543  Uani   1.00
C4185  C     0.31790   0.50000   0.56250   0.04747  Uani   1.00
C4186  C     0.42678   0.50000   0.56250   0.04137  Uani   1.00
C4187  C     0.39888   0.50000   0.56250   0.05083  Uani   1.00
C4188  C     0.34598   0.50000   0.56250   0.05433  Uani   1.00
C4189  C     0.43210   0.50000   0.68750   0.04747  Uani   1.00
C4190  C     0.32322   0.50000   0.68750   0.04137  Uani   1.00
C4191  C     0.35112   0.50000   0.68750   0.05083  Uani   1.00
C4192  C     0.40403   0.50000   0.68750   0.05433  Uani   1.00
C4193  C     0.25000   0.56790   0.62500   0.04747  Uani   1.00
C4194  C     0.25000   0.67678   0.62500   0.04137  Uani   1.00
C4195  C     0.25000   0.64888   0.62500   0.05083  Uani   1.00
C4196  C     0.25000   0.59598   0.62500   0.05433  Uani   1.00
C4197  C     0.25000   0.68210   0.50000   0.04747  Uani   1.00
C4198  C     0.25000   0.57322   0.50000   0.04137  Uani   1.00
C4199  C     0.25000   0.60112   0.50000   0.05083  Uani   1.00
C4200  C     0.25000   0.65402   0.50000   0.05433  Uani   1.00
N4201  N     0.71686   0.74600   0.57373   0.03357  Uani   1.00
N4202  N     0.52779   0.50163   0.55085   0.03837  Uani   1.00
C4203  C     0.69301   0.74380   0.58035   0.04437  Uani   1.00
H4204  H     0.68780   0.73865   0.59545   0.05300  Uiso   1.00
C4205  C     0.55178   0.50253   0.54393   0.05277  Uani   1.00
H4206  H     0.55700   0.50465   0.52823   0.06300  Uiso   1.00
C4207  C     0.60943   0.50565   0.54278   0.06813  Uani   1.00
H4208  H     0.60068   0.50990   0.52890   0.08200  Uiso   1.00
C4209  C     0.63528   0.50528   0.54270   0.07560  Uani   1.00
H4210  H     0.64398   0.50875   0.52863   0.09100  Uiso   1.00
N4211  N     0.53314   0.50400   0.69873   0.03357  Uani   1.00
N4212  N     0.72222   0.74837   0.67585   0.03837  Uani   1.00
C4213  C     0.55699   0.50620   0.70535   0.04437  Uani   1.00
H4214  H     0.56220   0.51135   0.72045   0.05300  Uiso   1.00
C4215  C     0.69823   0.74747   0.66893   0.05277  Uani   1.00
H4216  H     0.69300   0.74535   0.65323   0.06300  Uiso   1.00
C4217  C     0.64058   0.74435   0.66778   0.06813  Uani   1.00
H4218  H     0.64933   0.74010   0.65390   0.08200  Uiso   1.00
C4219  C     0.61473   0.74472   0.66770   0.07560  Uani   1.00
H4220  H     0.60603   0.74125   0.65363   0.09100  Uiso   1.00
N4221  N     0.50400   0.71686   0.63623   0.03357  Uani   1.00
N4222  N     0.74837   0.52779   0.61335   0.03837  Uani   1.00
C4223  C     0.50620   0.69301   0.64285   0.04437  Uani   1.00
H4224  H     0.51135   0.68780   0.65795   0.05300  Uiso   1.00
C4225  C     0.74748   0.55178   0.60643   0.05277  Uani   1.00
H4226  H     0.74535   0.55700   0.59073   0.06300  Uiso   1.00
C4227  C     0.74435   0.60943   0.60528   0.06813  Uani   1.00
H4228  H     0.74010   0.60068   0.59140   0.08200  Uiso   1.00
C4229  C     0.74473   0.63528   0.60520   0.07560  Uani   1.00
H4230  H     0.74125   0.64398   0.59113   0.09100  Uiso   1.00
N4231  N     0.74600   0.53314   0.51123   0.03357  Uani   1.00
N4232  N     0.50163   0.72221   0.73835   0.03837  Uani   1.00
C4233  C     0.74380   0.55699   0.51785   0.04437  Uani   1.00
H4234  H     0.73865   0.56220   0.53295   0.05300  Uiso   1.00
C4235  C     0.50253   0.69823   0.73143   0.05277  Uani   1.00
H4236  H     0.50465   0.69300   0.71573   0.06300  Uiso   1.00
C4237  C     0.50565   0.64058   0.73028   0.06813  Uani   1.00
H4238  H     0.50990   0.64933   0.71640   0.08200  Uiso   1.00
C4239  C     0.50528   0.61472   0.73020   0.07560  Uani   1.00
H4240  H     0.50875   0.60602   0.71613   0.09100  Uiso   1.00
N4241  N     0.53314   0.74600   0.67627   0.03357  Uani   1.00
N4242  N     0.72222   0.50163   0.69915   0.03837  Uani   1.00
C4243  C     0.55699   0.74380   0.66965   0.04437  Uani   1.00
H4244  H     0.56220   0.73865   0.65455   0.05300  Uiso   1.00
C4245  C     0.69823   0.50253   0.70608   0.05277  Uani   1.00
H4246  H     0.69300   0.50465   0.72178   0.06300  Uiso   1.00
C4247  C     0.64058   0.50565   0.70723   0.06813  Uani   1.00
H4248  H     0.64933   0.50990   0.72110   0.08200  Uiso   1.00
C4249  C     0.61473   0.50528   0.70730   0.07560  Uani   1.00
H4250  H     0.60603   0.50875   0.72138   0.09100  Uiso   1.00
N4251  N     0.71686   0.50400   0.55127   0.03357  Uani   1.00
N4252  N     0.52779   0.74837   0.57415   0.03837  Uani   1.00
C4253  C     0.69301   0.50620   0.54465   0.04437  Uani   1.00
H4254  H     0.68780   0.51135   0.52955   0.05300  Uiso   1.00
C4255  C     0.55178   0.74747   0.58108   0.05277  Uani   1.00
H4256  H     0.55700   0.74535   0.59678   0.06300  Uiso   1.00
C4257  C     0.60943   0.74435   0.58223   0.06813  Uani   1.00
H4258  H     0.60068   0.74010   0.59610   0.08200  Uiso   1.00
C4259  C     0.63528   0.74472   0.58230   0.07560  Uani   1.00
H4260  H     0.64398   0.74125   0.59638   0.09100  Uiso   1.00
N4261  N     0.74600   0.71686   0.61377   0.03357  Uani   1.00
N4262  N     0.50163   0.52779   0.63665   0.03837  Uani   1.00
C4263  C     0.74380   0.69301   0.60715   0.04437  Uani   1.00
H4264  H     0.73865   0.68780   0.59205   0.05300  Uiso   1.00
C4265  C     0.50253   0.55178   0.64358   0.05277  Uani   1.00
H4266  H     0.50465   0.55700   0.65928   0.06300  Uiso   1.00
C4267  C     0.50565   0.60943   0.64473   0.06813  Uani   1.00
H4268  H     0.50990   0.60068   0.65860   0.08200  Uiso   1.00
C4269  C     0.50528   0.63528   0.64480   0.07560  Uani   1.00
H4270  H     0.50875   0.64398   0.65888   0.09100  Uiso   1.00
N4271  N     0.50400   0.53314   0.73877   0.03357  Uani   1.00
N4272  N     0.74837   0.72221   0.51165   0.03837  Uani   1.00
C4273  C     0.50620   0.55699   0.73215   0.04437  Uani   1.00
H4274  H     0.51135   0.56220   0.71705   0.05300  Uiso   1.00
C4275  C     0.74748   0.69823   0.51858   0.05277  Uani   1.00
H4276  H     0.74535   0.69300   0.53428   0.06300  Uiso   1.00
C4277  C     0.74435   0.64058   0.51973   0.06813  Uani   1.00
H4278  H     0.74010   0.64933   0.53360   0.08200  Uiso   1.00
C4279  C     0.74473   0.61472   0.51980   0.07560  Uani   1.00
H4280  H     0.74125   0.60602   0.53388   0.09100  Uiso   1.00
Co4281 Co    0.74721   0.74721   0.59375   0.02543  Uani   1.00
Co4282 Co    0.50279   0.50279   0.71875   0.02543  Uani   1.00
Co4283 Co    0.50279   0.74721   0.65625   0.02543  Uani   1.00
Co4284 Co    0.74721   0.50279   0.53125   0.02543  Uani   1.00
C4285  C     0.56790   0.50000   0.56250   0.04747  Uani   1.00
C4286  C     0.67678   0.50000   0.56250   0.04137  Uani   1.00
C4287  C     0.64888   0.50000   0.56250   0.05083  Uani   1.00
C4288  C     0.59598   0.50000   0.56250   0.05433  Uani   1.00
C4289  C     0.68210   0.50000   0.68750   0.04747  Uani   1.00
C4290  C     0.57322   0.50000   0.68750   0.04137  Uani   1.00
C4291  C     0.60112   0.50000   0.68750   0.05083  Uani   1.00
C4292  C     0.65402   0.50000   0.68750   0.05433  Uani   1.00
C4293  C     0.50000   0.56790   0.62500   0.04747  Uani   1.00
C4294  C     0.50000   0.67678   0.62500   0.04137  Uani   1.00
C4295  C     0.50000   0.64888   0.62500   0.05083  Uani   1.00
C4296  C     0.50000   0.59598   0.62500   0.05433  Uani   1.00
C4297  C     0.50000   0.68210   0.50000   0.04747  Uani   1.00
C4298  C     0.50000   0.57322   0.50000   0.04137  Uani   1.00
C4299  C     0.50000   0.60112   0.50000   0.05083  Uani   1.00
C4300  C     0.50000   0.65402   0.50000   0.05433  Uani   1.00
N4301  N     0.96686   0.74600   0.57373   0.03357  Uani   1.00
N4302  N     0.77779   0.50163   0.55085   0.03837  Uani   1.00
C4303  C     0.94301   0.74380   0.58035   0.04437  Uani   1.00
H4304  H     0.93780   0.73865   0.59545   0.05300  Uiso   1.00
C4305  C     0.80178   0.50253   0.54393   0.05277  Uani   1.00
H4306  H     0.80700   0.50465   0.52823   0.06300  Uiso   1.00
C4307  C     0.85943   0.50565   0.54278   0.06813  Uani   1.00
H4308  H     0.85068   0.50990   0.52890   0.08200  Uiso   1.00
C4309  C     0.88528   0.50528   0.54270   0.07560  Uani   1.00
H4310  H     0.89398   0.50875   0.52863   0.09100  Uiso   1.00
N4311  N     0.78314   0.50400   0.69873   0.03357  Uani   1.00
N4312  N     0.97222   0.74837   0.67585   0.03837  Uani   1.00
C4313  C     0.80699   0.50620   0.70535   0.04437  Uani   1.00
H4314  H     0.81220   0.51135   0.72045   0.05300  Uiso   1.00
C4315  C     0.94823   0.74747   0.66893   0.05277  Uani   1.00
H4316  H     0.94300   0.74535   0.65323   0.06300  Uiso   1.00
C4317  C     0.89058   0.74435   0.66778   0.06813  Uani   1.00
H4318  H     0.89933   0.74010   0.65390   0.08200  Uiso   1.00
C4319  C     0.86472   0.74472   0.66770   0.07560  Uani   1.00
H4320  H     0.85602   0.74125   0.65363   0.09100  Uiso   1.00
N4321  N     0.75400   0.71686   0.63623   0.03357  Uani   1.00
N4322  N     0.99838   0.52779   0.61335   0.03837  Uani   1.00
C4323  C     0.75620   0.69301   0.64285   0.04437  Uani   1.00
H4324  H     0.76135   0.68780   0.65795   0.05300  Uiso   1.00
C4325  C     0.99748   0.55178   0.60643   0.05277  Uani   1.00
H4326  H     0.99535   0.55700   0.59073   0.06300  Uiso   1.00
C4327  C     0.99435   0.60943   0.60528   0.06813  Uani   1.00
H4328  H     0.99010   0.60068   0.59140   0.08200  Uiso   1.00
C4329  C     0.99473   0.63528   0.60520   0.07560  Uani   1.00
H4330  H     0.99125   0.64398   0.59113   0.09100  Uiso   1.00
N4331  N     0.99600   0.53314   0.51123   0.03357  Uani   1.00
N4332  N     0.75163   0.72221   0.73835   0.03837  Uani   1.00
C4333  C     0.99380   0.55699   0.51785   0.04437  Uani   1.00
H4334  H     0.98865   0.56220   0.53295   0.05300  Uiso   1.00
C4335  C     0.75253   0.69823   0.73143   0.05277  Uani   1.00
H4336  H     0.75465   0.69300   0.71573   0.06300  Uiso   1.00
C4337  C     0.75565   0.64058   0.73028   0.06813  Uani   1.00
H4338  H     0.75990   0.64933   0.71640   0.08200  Uiso   1.00
C4339  C     0.75528   0.61472   0.73020   0.07560  Uani   1.00
H4340  H     0.75875   0.60602   0.71613   0.09100  Uiso   1.00
N4341  N     0.78314   0.74600   0.67627   0.03357  Uani   1.00
N4342  N     0.97222   0.50163   0.69915   0.03837  Uani   1.00
C4343  C     0.80699   0.74380   0.66965   0.04437  Uani   1.00
H4344  H     0.81220   0.73865   0.65455   0.05300  Uiso   1.00
C4345  C     0.94823   0.50253   0.70608   0.05277  Uani   1.00
H4346  H     0.94300   0.50465   0.72178   0.06300  Uiso   1.00
C4347  C     0.89058   0.50565   0.70723   0.06813  Uani   1.00
H4348  H     0.89933   0.50990   0.72110   0.08200  Uiso   1.00
C4349  C     0.86472   0.50528   0.70730   0.07560  Uani   1.00
H4350  H     0.85602   0.50875   0.72138   0.09100  Uiso   1.00
N4351  N     0.96686   0.50400   0.55127   0.03357  Uani   1.00
N4352  N     0.77779   0.74837   0.57415   0.03837  Uani   1.00
C4353  C     0.94301   0.50620   0.54465   0.04437  Uani   1.00
H4354  H     0.93780   0.51135   0.52955   0.05300  Uiso   1.00
C4355  C     0.80178   0.74747   0.58108   0.05277  Uani   1.00
H4356  H     0.80700   0.74535   0.59678   0.06300  Uiso   1.00
C4357  C     0.85943   0.74435   0.58223   0.06813  Uani   1.00
H4358  H     0.85068   0.74010   0.59610   0.08200  Uiso   1.00
C4359  C     0.88528   0.74472   0.58230   0.07560  Uani   1.00
H4360  H     0.89398   0.74125   0.59638   0.09100  Uiso   1.00
N4361  N     0.99600   0.71686   0.61377   0.03357  Uani   1.00
N4362  N     0.75163   0.52779   0.63665   0.03837  Uani   1.00
C4363  C     0.99380   0.69301   0.60715   0.04437  Uani   1.00
H4364  H     0.98865   0.68780   0.59205   0.05300  Uiso   1.00
C4365  C     0.75253   0.55178   0.64358   0.05277  Uani   1.00
H4366  H     0.75465   0.55700   0.65928   0.06300  Uiso   1.00
C4367  C     0.75565   0.60943   0.64473   0.06813  Uani   1.00
H4368  H     0.75990   0.60068   0.65860   0.08200  Uiso   1.00
C4369  C     0.75528   0.63528   0.64480   0.07560  Uani   1.00
H4370  H     0.75875   0.64398   0.65888   0.09100  Uiso   1.00
N4371  N     0.75400   0.53314   0.73877   0.03357  Uani   1.00
N4372  N     0.99838   0.72221   0.51165   0.03837  Uani   1.00
C4373  C     0.75620   0.55699   0.73215   0.04437  Uani   1.00
H4374  H     0.76135   0.56220   0.71705   0.05300  Uiso   1.00
C4375  C     0.99748   0.69823   0.51858   0.05277  Uani   1.00
H4376  H     0.99535   0.69300   0.53428   0.06300  Uiso   1.00
C4377  C     0.99435   0.64058   0.51973   0.06813  Uani   1.00
H4378  H     0.99010   0.64933   0.53360   0.08200  Uiso   1.00
C4379  C     0.99473   0.61472   0.51980   0.07560  Uani   1.00
H4380  H     0.99125   0.60602   0.53388   0.09100  Uiso   1.00
Co4381 Co    0.99721   0.74721   0.59375   0.02543  Uani   1.00
Co4382 Co    0.75279   0.50279   0.71875   0.02543  Uani   1.00
Co4383 Co    0.75279   0.74721   0.65625   0.02543  Uani   1.00
Co4384 Co    0.99721   0.50279   0.53125   0.02543  Uani   1.00
C4385  C     0.81790   0.50000   0.56250   0.04747  Uani   1.00
C4386  C     0.92678   0.50000   0.56250   0.04137  Uani   1.00
C4387  C     0.89888   0.50000   0.56250   0.05083  Uani   1.00
C4388  C     0.84598   0.50000   0.56250   0.05433  Uani   1.00
C4389  C     0.93210   0.50000   0.68750   0.04747  Uani   1.00
C4390  C     0.82322   0.50000   0.68750   0.04137  Uani   1.00
C4391  C     0.85113   0.50000   0.68750   0.05083  Uani   1.00
C4392  C     0.90403   0.50000   0.68750   0.05433  Uani   1.00
C4393  C     0.75000   0.56790   0.62500   0.04747  Uani   1.00
C4394  C     0.75000   0.67678   0.62500   0.04137  Uani   1.00
C4395  C     0.75000   0.64888   0.62500   0.05083  Uani   1.00
C4396  C     0.75000   0.59598   0.62500   0.05433  Uani   1.00
C4397  C     0.75000   0.68210   0.50000   0.04747  Uani   1.00
C4398  C     0.75000   0.57322   0.50000   0.04137  Uani   1.00
C4399  C     0.75000   0.60112   0.50000   0.05083  Uani   1.00
C4400  C     0.75000   0.65402   0.50000   0.05433  Uani   1.00
N4401  N     0.21686   0.99600   0.57373   0.03357  Uani   1.00
N4402  N     0.02778   0.75163   0.55085   0.03837  Uani   1.00
C4403  C     0.19301   0.99380   0.58035   0.04437  Uani   1.00
H4404  H     0.18780   0.98865   0.59545   0.05300  Uiso   1.00
C4405  C     0.05177   0.75253   0.54393   0.05277  Uani   1.00
H4406  H     0.05700   0.75465   0.52823   0.06300  Uiso   1.00
C4407  C     0.10943   0.75565   0.54278   0.06813  Uani   1.00
H4408  H     0.10068   0.75990   0.52890   0.08200  Uiso   1.00
C4409  C     0.13528   0.75528   0.54270   0.07560  Uani   1.00
H4410  H     0.14398   0.75875   0.52863   0.09100  Uiso   1.00
N4411  N     0.03314   0.75400   0.69873   0.03357  Uani   1.00
N4412  N     0.22221   0.99837   0.67585   0.03837  Uani   1.00
C4413  C     0.05699   0.75620   0.70535   0.04437  Uani   1.00
H4414  H     0.06220   0.76135   0.72045   0.05300  Uiso   1.00
C4415  C     0.19823   0.99747   0.66893   0.05277  Uani   1.00
H4416  H     0.19300   0.99535   0.65323   0.06300  Uiso   1.00
C4417  C     0.14057   0.99435   0.66778   0.06813  Uani   1.00
H4418  H     0.14932   0.99010   0.65390   0.08200  Uiso   1.00
C4419  C     0.11472   0.99473   0.66770   0.07560  Uani   1.00
H4420  H     0.10602   0.99125   0.65363   0.09100  Uiso   1.00
N4421  N     0.00400   0.96686   0.63623   0.03357  Uani   1.00
N4422  N     0.24837   0.77779   0.61335   0.03837  Uani   1.00
C4423  C     0.00620   0.94301   0.64285   0.04437  Uani   1.00
H4424  H     0.01135   0.93780   0.65795   0.05300  Uiso   1.00
C4425  C     0.24748   0.80178   0.60643   0.05277  Uani   1.00
H4426  H     0.24535   0.80700   0.59073   0.06300  Uiso   1.00
C4427  C     0.24435   0.85943   0.60528   0.06813  Uani   1.00
H4428  H     0.24010   0.85068   0.59140   0.08200  Uiso   1.00
C4429  C     0.24473   0.88528   0.60520   0.07560  Uani   1.00
H4430  H     0.24125   0.89398   0.59113   0.09100  Uiso   1.00
N4431  N     0.24600   0.78314   0.51123   0.03357  Uani   1.00
N4432  N     0.00163   0.97221   0.73835   0.03837  Uani   1.00
C4433  C     0.24380   0.80699   0.51785   0.04437  Uani   1.00
H4434  H     0.23865   0.81220   0.53295   0.05300  Uiso   1.00
C4435  C     0.00253   0.94823   0.73143   0.05277  Uani   1.00
H4436  H     0.00465   0.94300   0.71573   0.06300  Uiso   1.00
C4437  C     0.00565   0.89058   0.73028   0.06813  Uani   1.00
H4438  H     0.00990   0.89933   0.71640   0.08200  Uiso   1.00
C4439  C     0.00528   0.86472   0.73020   0.07560  Uani   1.00
H4440  H     0.00875   0.85602   0.71613   0.09100  Uiso   1.00
N4441  N     0.03314   0.99600   0.67627   0.03357  Uani   1.00
N4442  N     0.22221   0.75163   0.69915   0.03837  Uani   1.00
C4443  C     0.05699   0.99380   0.66965   0.04437  Uani   1.00
H4444  H     0.06220   0.98865   0.65455   0.05300  Uiso   1.00
C4445  C     0.19823   0.75253   0.70608   0.05277  Uani   1.00
H4446  H     0.19300   0.75465   0.72178   0.06300  Uiso   1.00
C4447  C     0.14057   0.75565   0.70723   0.06813  Uani   1.00
H4448  H     0.14932   0.75990   0.72110   0.08200  Uiso   1.00
C4449  C     0.11472   0.75528   0.70730   0.07560  Uani   1.00
H4450  H     0.10602   0.75875   0.72138   0.09100  Uiso   1.00
N4451  N     0.21686   0.75400   0.55127   0.03357  Uani   1.00
N4452  N     0.02778   0.99837   0.57415   0.03837  Uani   1.00
C4453  C     0.19301   0.75620   0.54465   0.04437  Uani   1.00
H4454  H     0.18780   0.76135   0.52955   0.05300  Uiso   1.00
C4455  C     0.05177   0.99747   0.58108   0.05277  Uani   1.00
H4456  H     0.05700   0.99535   0.59678   0.06300  Uiso   1.00
C4457  C     0.10943   0.99435   0.58223   0.06813  Uani   1.00
H4458  H     0.10068   0.99010   0.59610   0.08200  Uiso   1.00
C4459  C     0.13528   0.99473   0.58230   0.07560  Uani   1.00
H4460  H     0.14398   0.99125   0.59638   0.09100  Uiso   1.00
N4461  N     0.24600   0.96686   0.61377   0.03357  Uani   1.00
N4462  N     0.00163   0.77779   0.63665   0.03837  Uani   1.00
C4463  C     0.24380   0.94301   0.60715   0.04437  Uani   1.00
H4464  H     0.23865   0.93780   0.59205   0.05300  Uiso   1.00
C4465  C     0.00253   0.80178   0.64358   0.05277  Uani   1.00
H4466  H     0.00465   0.80700   0.65928   0.06300  Uiso   1.00
C4467  C     0.00565   0.85943   0.64473   0.06813  Uani   1.00
H4468  H     0.00990   0.85068   0.65860   0.08200  Uiso   1.00
C4469  C     0.00528   0.88528   0.64480   0.07560  Uani   1.00
H4470  H     0.00875   0.89398   0.65888   0.09100  Uiso   1.00
N4471  N     0.00400   0.78314   0.73877   0.03357  Uani   1.00
N4472  N     0.24837   0.97221   0.51165   0.03837  Uani   1.00
C4473  C     0.00620   0.80699   0.73215   0.04437  Uani   1.00
H4474  H     0.01135   0.81220   0.71705   0.05300  Uiso   1.00
C4475  C     0.24748   0.94823   0.51858   0.05277  Uani   1.00
H4476  H     0.24535   0.94300   0.53428   0.06300  Uiso   1.00
C4477  C     0.24435   0.89058   0.51973   0.06813  Uani   1.00
H4478  H     0.24010   0.89933   0.53360   0.08200  Uiso   1.00
C4479  C     0.24473   0.86472   0.51980   0.07560  Uani   1.00
H4480  H     0.24125   0.85602   0.53388   0.09100  Uiso   1.00
Co4481 Co    0.24721   0.99721   0.59375   0.02543  Uani   1.00
Co4482 Co    0.00279   0.75279   0.71875   0.02543  Uani   1.00
Co4483 Co    0.00279   0.99721   0.65625   0.02543  Uani   1.00
Co4484 Co    0.24721   0.75279   0.53125   0.02543  Uani   1.00
C4485  C     0.06790   0.75000   0.56250   0.04747  Uani   1.00
C4486  C     0.17678   0.75000   0.56250   0.04137  Uani   1.00
C4487  C     0.14888   0.75000   0.56250   0.05083  Uani   1.00
C4488  C     0.09598   0.75000   0.56250   0.05433  Uani   1.00
C4489  C     0.18210   0.75000   0.68750   0.04747  Uani   1.00
C4490  C     0.07322   0.75000   0.68750   0.04137  Uani   1.00
C4491  C     0.10112   0.75000   0.68750   0.05083  Uani   1.00
C4492  C     0.15402   0.75000   0.68750   0.05433  Uani   1.00
C4493  C     0.00000   0.81790   0.62500   0.04747  Uani   1.00
C4494  C     0.00000   0.92678   0.62500   0.04137  Uani   1.00
C4495  C     0.00000   0.89888   0.62500   0.05083  Uani   1.00
C4496  C     0.00000   0.84598   0.62500   0.05433  Uani   1.00
C4497  C     0.00000   0.93210   0.50000   0.04747  Uani   1.00
C4498  C     0.00000   0.82322   0.50000   0.04137  Uani   1.00
C4499  C     0.00000   0.85112   0.50000   0.05083  Uani   1.00
C4500  C     0.00000   0.90402   0.50000   0.05433  Uani   1.00
N4501  N     0.46686   0.99600   0.57373   0.03357  Uani   1.00
N4502  N     0.27778   0.75163   0.55085   0.03837  Uani   1.00
C4503  C     0.44301   0.99380   0.58035   0.04437  Uani   1.00
H4504  H     0.43780   0.98865   0.59545   0.05300  Uiso   1.00
C4505  C     0.30177   0.75253   0.54393   0.05277  Uani   1.00
H4506  H     0.30700   0.75465   0.52823   0.06300  Uiso   1.00
C4507  C     0.35943   0.75565   0.54278   0.06813  Uani   1.00
H4508  H     0.35068   0.75990   0.52890   0.08200  Uiso   1.00
C4509  C     0.38528   0.75528   0.54270   0.07560  Uani   1.00
H4510  H     0.39398   0.75875   0.52863   0.09100  Uiso   1.00
N4511  N     0.28314   0.75400   0.69873   0.03357  Uani   1.00
N4512  N     0.47222   0.99837   0.67585   0.03837  Uani   1.00
C4513  C     0.30699   0.75620   0.70535   0.04437  Uani   1.00
H4514  H     0.31220   0.76135   0.72045   0.05300  Uiso   1.00
C4515  C     0.44822   0.99747   0.66893   0.05277  Uani   1.00
H4516  H     0.44300   0.99535   0.65323   0.06300  Uiso   1.00
C4517  C     0.39057   0.99435   0.66778   0.06813  Uani   1.00
H4518  H     0.39933   0.99010   0.65390   0.08200  Uiso   1.00
C4519  C     0.36472   0.99473   0.66770   0.07560  Uani   1.00
H4520  H     0.35602   0.99125   0.65363   0.09100  Uiso   1.00
N4521  N     0.25400   0.96686   0.63623   0.03357  Uani   1.00
N4522  N     0.49838   0.77779   0.61335   0.03837  Uani   1.00
C4523  C     0.25620   0.94301   0.64285   0.04437  Uani   1.00
H4524  H     0.26135   0.93780   0.65795   0.05300  Uiso   1.00
C4525  C     0.49748   0.80178   0.60643   0.05277  Uani   1.00
H4526  H     0.49535   0.80700   0.59073   0.06300  Uiso   1.00
C4527  C     0.49435   0.85943   0.60528   0.06813  Uani   1.00
H4528  H     0.49010   0.85068   0.59140   0.08200  Uiso   1.00
C4529  C     0.49473   0.88528   0.60520   0.07560  Uani   1.00
H4530  H     0.49125   0.89398   0.59113   0.09100  Uiso   1.00
N4531  N     0.49600   0.78314   0.51123   0.03357  Uani   1.00
N4532  N     0.25163   0.97221   0.73835   0.03837  Uani   1.00
C4533  C     0.49380   0.80699   0.51785   0.04437  Uani   1.00
H4534  H     0.48865   0.81220   0.53295   0.05300  Uiso   1.00
C4535  C     0.25253   0.94823   0.73143   0.05277  Uani   1.00
H4536  H     0.25465   0.94300   0.71573   0.06300  Uiso   1.00
C4537  C     0.25565   0.89058   0.73028   0.06813  Uani   1.00
H4538  H     0.25990   0.89933   0.71640   0.08200  Uiso   1.00
C4539  C     0.25528   0.86472   0.73020   0.07560  Uani   1.00
H4540  H     0.25875   0.85602   0.71613   0.09100  Uiso   1.00
N4541  N     0.28314   0.99600   0.67627   0.03357  Uani   1.00
N4542  N     0.47222   0.75163   0.69915   0.03837  Uani   1.00
C4543  C     0.30699   0.99380   0.66965   0.04437  Uani   1.00
H4544  H     0.31220   0.98865   0.65455   0.05300  Uiso   1.00
C4545  C     0.44822   0.75253   0.70608   0.05277  Uani   1.00
H4546  H     0.44300   0.75465   0.72178   0.06300  Uiso   1.00
C4547  C     0.39057   0.75565   0.70723   0.06813  Uani   1.00
H4548  H     0.39933   0.75990   0.72110   0.08200  Uiso   1.00
C4549  C     0.36472   0.75528   0.70730   0.07560  Uani   1.00
H4550  H     0.35602   0.75875   0.72138   0.09100  Uiso   1.00
N4551  N     0.46686   0.75400   0.55127   0.03357  Uani   1.00
N4552  N     0.27778   0.99837   0.57415   0.03837  Uani   1.00
C4553  C     0.44301   0.75620   0.54465   0.04437  Uani   1.00
H4554  H     0.43780   0.76135   0.52955   0.05300  Uiso   1.00
C4555  C     0.30177   0.99747   0.58108   0.05277  Uani   1.00
H4556  H     0.30700   0.99535   0.59678   0.06300  Uiso   1.00
C4557  C     0.35943   0.99435   0.58223   0.06813  Uani   1.00
H4558  H     0.35068   0.99010   0.59610   0.08200  Uiso   1.00
C4559  C     0.38528   0.99473   0.58230   0.07560  Uani   1.00
H4560  H     0.39398   0.99125   0.59638   0.09100  Uiso   1.00
N4561  N     0.49600   0.96686   0.61377   0.03357  Uani   1.00
N4562  N     0.25163   0.77779   0.63665   0.03837  Uani   1.00
C4563  C     0.49380   0.94301   0.60715   0.04437  Uani   1.00
H4564  H     0.48865   0.93780   0.59205   0.05300  Uiso   1.00
C4565  C     0.25253   0.80178   0.64358   0.05277  Uani   1.00
H4566  H     0.25465   0.80700   0.65928   0.06300  Uiso   1.00
C4567  C     0.25565   0.85943   0.64473   0.06813  Uani   1.00
H4568  H     0.25990   0.85068   0.65860   0.08200  Uiso   1.00
C4569  C     0.25528   0.88528   0.64480   0.07560  Uani   1.00
H4570  H     0.25875   0.89398   0.65888   0.09100  Uiso   1.00
N4571  N     0.25400   0.78314   0.73877   0.03357  Uani   1.00
N4572  N     0.49838   0.97221   0.51165   0.03837  Uani   1.00
C4573  C     0.25620   0.80699   0.73215   0.04437  Uani   1.00
H4574  H     0.26135   0.81220   0.71705   0.05300  Uiso   1.00
C4575  C     0.49748   0.94823   0.51858   0.05277  Uani   1.00
H4576  H     0.49535   0.94300   0.53428   0.06300  Uiso   1.00
C4577  C     0.49435   0.89058   0.51973   0.06813  Uani   1.00
H4578  H     0.49010   0.89933   0.53360   0.08200  Uiso   1.00
C4579  C     0.49473   0.86472   0.51980   0.07560  Uani   1.00
H4580  H     0.49125   0.85602   0.53388   0.09100  Uiso   1.00
Co4581 Co    0.49721   0.99721   0.59375   0.02543  Uani   1.00
Co4582 Co    0.25279   0.75279   0.71875   0.02543  Uani   1.00
Co4583 Co    0.25279   0.99721   0.65625   0.02543  Uani   1.00
Co4584 Co    0.49721   0.75279   0.53125   0.02543  Uani   1.00
C4585  C     0.31790   0.75000   0.56250   0.04747  Uani   1.00
C4586  C     0.42678   0.75000   0.56250   0.04137  Uani   1.00
C4587  C     0.39888   0.75000   0.56250   0.05083  Uani   1.00
C4588  C     0.34598   0.75000   0.56250   0.05433  Uani   1.00
C4589  C     0.43210   0.75000   0.68750   0.04747  Uani   1.00
C4590  C     0.32322   0.75000   0.68750   0.04137  Uani   1.00
C4591  C     0.35112   0.75000   0.68750   0.05083  Uani   1.00
C4592  C     0.40403   0.75000   0.68750   0.05433  Uani   1.00
C4593  C     0.25000   0.81790   0.62500   0.04747  Uani   1.00
C4594  C     0.25000   0.92678   0.62500   0.04137  Uani   1.00
C4595  C     0.25000   0.89888   0.62500   0.05083  Uani   1.00
C4596  C     0.25000   0.84598   0.62500   0.05433  Uani   1.00
C4597  C     0.25000   0.93210   0.50000   0.04747  Uani   1.00
C4598  C     0.25000   0.82322   0.50000   0.04137  Uani   1.00
C4599  C     0.25000   0.85112   0.50000   0.05083  Uani   1.00
C4600  C     0.25000   0.90402   0.50000   0.05433  Uani   1.00
N4601  N     0.71686   0.99600   0.57373   0.03357  Uani   1.00
N4602  N     0.52779   0.75163   0.55085   0.03837  Uani   1.00
C4603  C     0.69301   0.99380   0.58035   0.04437  Uani   1.00
H4604  H     0.68780   0.98865   0.59545   0.05300  Uiso   1.00
C4605  C     0.55178   0.75253   0.54393   0.05277  Uani   1.00
H4606  H     0.55700   0.75465   0.52823   0.06300  Uiso   1.00
C4607  C     0.60943   0.75565   0.54278   0.06813  Uani   1.00
H4608  H     0.60068   0.75990   0.52890   0.08200  Uiso   1.00
C4609  C     0.63528   0.75528   0.54270   0.07560  Uani   1.00
H4610  H     0.64398   0.75875   0.52863   0.09100  Uiso   1.00
N4611  N     0.53314   0.75400   0.69873   0.03357  Uani   1.00
N4612  N     0.72222   0.99837   0.67585   0.03837  Uani   1.00
C4613  C     0.55699   0.75620   0.70535   0.04437  Uani   1.00
H4614  H     0.56220   0.76135   0.72045   0.05300  Uiso   1.00
C4615  C     0.69823   0.99747   0.66893   0.05277  Uani   1.00
H4616  H     0.69300   0.99535   0.65323   0.06300  Uiso   1.00
C4617  C     0.64058   0.99435   0.66778   0.06813  Uani   1.00
H4618  H     0.64933   0.99010   0.65390   0.08200  Uiso   1.00
C4619  C     0.61473   0.99473   0.66770   0.07560  Uani   1.00
H4620  H     0.60603   0.99125   0.65363   0.09100  Uiso   1.00
N4621  N     0.50400   0.96686   0.63623   0.03357  Uani   1.00
N4622  N     0.74837   0.77779   0.61335   0.03837  Uani   1.00
C4623  C     0.50620   0.94301   0.64285   0.04437  Uani   1.00
H4624  H     0.51135   0.93780   0.65795   0.05300  Uiso   1.00
C4625  C     0.74748   0.80178   0.60643   0.05277  Uani   1.00
H4626  H     0.74535   0.80700   0.59073   0.06300  Uiso   1.00
C4627  C     0.74435   0.85943   0.60528   0.06813  Uani   1.00
H4628  H     0.74010   0.85068   0.59140   0.08200  Uiso   1.00
C4629  C     0.74473   0.88528   0.60520   0.07560  Uani   1.00
H4630  H     0.74125   0.89398   0.59113   0.09100  Uiso   1.00
N4631  N     0.74600   0.78314   0.51123   0.03357  Uani   1.00
N4632  N     0.50163   0.97221   0.73835   0.03837  Uani   1.00
C4633  C     0.74380   0.80699   0.51785   0.04437  Uani   1.00
H4634  H     0.73865   0.81220   0.53295   0.05300  Uiso   1.00
C4635  C     0.50253   0.94823   0.73143   0.05277  Uani   1.00
H4636  H     0.50465   0.94300   0.71573   0.06300  Uiso   1.00
C4637  C     0.50565   0.89058   0.73028   0.06813  Uani   1.00
H4638  H     0.50990   0.89933   0.71640   0.08200  Uiso   1.00
C4639  C     0.50528   0.86472   0.73020   0.07560  Uani   1.00
H4640  H     0.50875   0.85602   0.71613   0.09100  Uiso   1.00
N4641  N     0.53314   0.99600   0.67627   0.03357  Uani   1.00
N4642  N     0.72222   0.75163   0.69915   0.03837  Uani   1.00
C4643  C     0.55699   0.99380   0.66965   0.04437  Uani   1.00
H4644  H     0.56220   0.98865   0.65455   0.05300  Uiso   1.00
C4645  C     0.69823   0.75253   0.70608   0.05277  Uani   1.00
H4646  H     0.69300   0.75465   0.72178   0.06300  Uiso   1.00
C4647  C     0.64058   0.75565   0.70723   0.06813  Uani   1.00
H4648  H     0.64933   0.75990   0.72110   0.08200  Uiso   1.00
C4649  C     0.61473   0.75528   0.70730   0.07560  Uani   1.00
H4650  H     0.60603   0.75875   0.72138   0.09100  Uiso   1.00
N4651  N     0.71686   0.75400   0.55127   0.03357  Uani   1.00
N4652  N     0.52779   0.99837   0.57415   0.03837  Uani   1.00
C4653  C     0.69301   0.75620   0.54465   0.04437  Uani   1.00
H4654  H     0.68780   0.76135   0.52955   0.05300  Uiso   1.00
C4655  C     0.55178   0.99747   0.58108   0.05277  Uani   1.00
H4656  H     0.55700   0.99535   0.59678   0.06300  Uiso   1.00
C4657  C     0.60943   0.99435   0.58223   0.06813  Uani   1.00
H4658  H     0.60068   0.99010   0.59610   0.08200  Uiso   1.00
C4659  C     0.63528   0.99473   0.58230   0.07560  Uani   1.00
H4660  H     0.64398   0.99125   0.59638   0.09100  Uiso   1.00
N4661  N     0.74600   0.96686   0.61377   0.03357  Uani   1.00
N4662  N     0.50163   0.77779   0.63665   0.03837  Uani   1.00
C4663  C     0.74380   0.94301   0.60715   0.04437  Uani   1.00
H4664  H     0.73865   0.93780   0.59205   0.05300  Uiso   1.00
C4665  C     0.50253   0.80178   0.64358   0.05277  Uani   1.00
H4666  H     0.50465   0.80700   0.65928   0.06300  Uiso   1.00
C4667  C     0.50565   0.85943   0.64473   0.06813  Uani   1.00
H4668  H     0.50990   0.85068   0.65860   0.08200  Uiso   1.00
C4669  C     0.50528   0.88528   0.64480   0.07560  Uani   1.00
H4670  H     0.50875   0.89398   0.65888   0.09100  Uiso   1.00
N4671  N     0.50400   0.78314   0.73877   0.03357  Uani   1.00
N4672  N     0.74837   0.97221   0.51165   0.03837  Uani   1.00
C4673  C     0.50620   0.80699   0.73215   0.04437  Uani   1.00
H4674  H     0.51135   0.81220   0.71705   0.05300  Uiso   1.00
C4675  C     0.74748   0.94823   0.51858   0.05277  Uani   1.00
H4676  H     0.74535   0.94300   0.53428   0.06300  Uiso   1.00
C4677  C     0.74435   0.89058   0.51973   0.06813  Uani   1.00
H4678  H     0.74010   0.89933   0.53360   0.08200  Uiso   1.00
C4679  C     0.74473   0.86472   0.51980   0.07560  Uani   1.00
H4680  H     0.74125   0.85602   0.53388   0.09100  Uiso   1.00
Co4681 Co    0.74721   0.99721   0.59375   0.02543  Uani   1.00
Co4682 Co    0.50279   0.75279   0.71875   0.02543  Uani   1.00
Co4683 Co    0.50279   0.99721   0.65625   0.02543  Uani   1.00
Co4684 Co    0.74721   0.75279   0.53125   0.02543  Uani   1.00
C4685  C     0.56790   0.75000   0.56250   0.04747  Uani   1.00
C4686  C     0.67678   0.75000   0.56250   0.04137  Uani   1.00
C4687  C     0.64888   0.75000   0.56250   0.05083  Uani   1.00
C4688  C     0.59598   0.75000   0.56250   0.05433  Uani   1.00
C4689  C     0.68210   0.75000   0.68750   0.04747  Uani   1.00
C4690  C     0.57322   0.75000   0.68750   0.04137  Uani   1.00
C4691  C     0.60112   0.75000   0.68750   0.05083  Uani   1.00
C4692  C     0.65402   0.75000   0.68750   0.05433  Uani   1.00
C4693  C     0.50000   0.81790   0.62500   0.04747  Uani   1.00
C4694  C     0.50000   0.92678   0.62500   0.04137  Uani   1.00
C4695  C     0.50000   0.89888   0.62500   0.05083  Uani   1.00
C4696  C     0.50000   0.84598   0.62500   0.05433  Uani   1.00
C4697  C     0.50000   0.93210   0.50000   0.04747  Uani   1.00
C4698  C     0.50000   0.82322   0.50000   0.04137  Uani   1.00
C4699  C     0.50000   0.85112   0.50000   0.05083  Uani   1.00
C4700  C     0.50000   0.90402   0.50000   0.05433  Uani   1.00
N4701  N     0.96686   0.99600   0.57373   0.03357  Uani   1.00
N4702  N     0.77779   0.75163   0.55085   0.03837  Uani   1.00
C4703  C     0.94301   0.99380   0.58035   0.04437  Uani   1.00
H4704  H     0.93780   0.98865   0.59545   0.05300  Uiso   1.00
C4705  C     0.80178   0.75253   0.54393   0.05277  Uani   1.00
H4706  H     0.80700   0.75465   0.52823   0.06300  Uiso   1.00
C4707  C     0.85943   0.75565   0.54278   0.06813  Uani   1.00
H4708  H     0.85068   0.75990   0.52890   0.08200  Uiso   1.00
C4709  C     0.88528   0.75528   0.54270   0.07560  Uani   1.00
H4710  H     0.89398   0.75875   0.52863   0.09100  Uiso   1.00
N4711  N     0.78314   0.75400   0.69873   0.03357  Uani   1.00
N4712  N     0.97222   0.99837   0.67585   0.03837  Uani   1.00
C4713  C     0.80699   0.75620   0.70535   0.04437  Uani   1.00
H4714  H     0.81220   0.76135   0.72045   0.05300  Uiso   1.00
C4715  C     0.94823   0.99747   0.66893   0.05277  Uani   1.00
H4716  H     0.94300   0.99535   0.65323   0.06300  Uiso   1.00
C4717  C     0.89058   0.99435   0.66778   0.06813  Uani   1.00
H4718  H     0.89933   0.99010   0.65390   0.08200  Uiso   1.00
C4719  C     0.86472   0.99473   0.66770   0.07560  Uani   1.00
H4720  H     0.85602   0.99125   0.65363   0.09100  Uiso   1.00
N4721  N     0.75400   0.96686   0.63623   0.03357  Uani   1.00
N4722  N     0.99838   0.77779   0.61335   0.03837  Uani   1.00
C4723  C     0.75620   0.94301   0.64285   0.04437  Uani   1.00
H4724  H     0.76135   0.93780   0.65795   0.05300  Uiso   1.00
C4725  C     0.99748   0.80178   0.60643   0.05277  Uani   1.00
H4726  H     0.99535   0.80700   0.59073   0.06300  Uiso   1.00
C4727  C     0.99435   0.85943   0.60528   0.06813  Uani   1.00
H4728  H     0.99010   0.85068   0.59140   0.08200  Uiso   1.00
C4729  C     0.99473   0.88528   0.60520   0.07560  Uani   1.00
H4730  H     0.99125   0.89398   0.59113   0.09100  Uiso   1.00
N4731  N     0.99600   0.78314   0.51123   0.03357  Uani   1.00
N4732  N     0.75163   0.97221   0.73835   0.03837  Uani   1.00
C4733  C     0.99380   0.80699   0.51785   0.04437  Uani   1.00
H4734  H     0.98865   0.81220   0.53295   0.05300  Uiso   1.00
C4735  C     0.75253   0.94823   0.73143   0.05277  Uani   1.00
H4736  H     0.75465   0.94300   0.71573   0.06300  Uiso   1.00
C4737  C     0.75565   0.89058   0.73028   0.06813  Uani   1.00
H4738  H     0.75990   0.89933   0.71640   0.08200  Uiso   1.00
C4739  C     0.75528   0.86472   0.73020   0.07560  Uani   1.00
H4740  H     0.75875   0.85602   0.71613   0.09100  Uiso   1.00
N4741  N     0.78314   0.99600   0.67627   0.03357  Uani   1.00
N4742  N     0.97222   0.75163   0.69915   0.03837  Uani   1.00
C4743  C     0.80699   0.99380   0.66965   0.04437  Uani   1.00
H4744  H     0.81220   0.98865   0.65455   0.05300  Uiso   1.00
C4745  C     0.94823   0.75253   0.70608   0.05277  Uani   1.00
H4746  H     0.94300   0.75465   0.72178   0.06300  Uiso   1.00
C4747  C     0.89058   0.75565   0.70723   0.06813  Uani   1.00
H4748  H     0.89933   0.75990   0.72110   0.08200  Uiso   1.00
C4749  C     0.86472   0.75528   0.70730   0.07560  Uani   1.00
H4750  H     0.85602   0.75875   0.72138   0.09100  Uiso   1.00
N4751  N     0.96686   0.75400   0.55127   0.03357  Uani   1.00
N4752  N     0.77779   0.99837   0.57415   0.03837  Uani   1.00
C4753  C     0.94301   0.75620   0.54465   0.04437  Uani   1.00
H4754  H     0.93780   0.76135   0.52955   0.05300  Uiso   1.00
C4755  C     0.80178   0.99747   0.58108   0.05277  Uani   1.00
H4756  H     0.80700   0.99535   0.59678   0.06300  Uiso   1.00
C4757  C     0.85943   0.99435   0.58223   0.06813  Uani   1.00
H4758  H     0.85068   0.99010   0.59610   0.08200  Uiso   1.00
C4759  C     0.88528   0.99473   0.58230   0.07560  Uani   1.00
H4760  H     0.89398   0.99125   0.59638   0.09100  Uiso   1.00
N4761  N     0.99600   0.96686   0.61377   0.03357  Uani   1.00
N4762  N     0.75163   0.77779   0.63665   0.03837  Uani   1.00
C4763  C     0.99380   0.94301   0.60715   0.04437  Uani   1.00
H4764  H     0.98865   0.93780   0.59205   0.05300  Uiso   1.00
C4765  C     0.75253   0.80178   0.64358   0.05277  Uani   1.00
H4766  H     0.75465   0.80700   0.65928   0.06300  Uiso   1.00
C4767  C     0.75565   0.85943   0.64473   0.06813  Uani   1.00
H4768  H     0.75990   0.85068   0.65860   0.08200  Uiso   1.00
C4769  C     0.75528   0.88528   0.64480   0.07560  Uani   1.00
H4770  H     0.75875   0.89398   0.65888   0.09100  Uiso   1.00
N4771  N     0.75400   0.78314   0.73877   0.03357  Uani   1.00
N4772  N     0.99838   0.97221   0.51165   0.03837  Uani   1.00
C4773  C     0.75620   0.80699   0.73215   0.04437  Uani   1.00
H4774  H     0.76135   0.81220   0.71705   0.05300  Uiso   1.00
C4775  C     0.99748   0.94823   0.51858   0.05277  Uani   1.00
H4776  H     0.99535   0.94300   0.53428   0.06300  Uiso   1.00
C4777  C     0.99435   0.89058   0.51973   0.06813  Uani   1.00
H4778  H     0.99010   0.89933   0.53360   0.08200  Uiso   1.00
C4779  C     0.99473   0.86472   0.51980   0.07560  Uani   1.00
H4780  H     0.99125   0.85602   0.53388   0.09100  Uiso   1.00
Co4781 Co    0.99721   0.99721   0.59375   0.02543  Uani   1.00
Co4782 Co    0.75279   0.75279   0.71875   0.02543  Uani   1.00
Co4783 Co    0.75279   0.99721   0.65625   0.02543  Uani   1.00
Co4784 Co    0.99721   0.75279   0.53125   0.02543  Uani   1.00
C4785  C     0.81790   0.75000   0.56250   0.04747  Uani   1.00
C4786  C     0.92678   0.75000   0.56250   0.04137  Uani   1.00
C4787  C     0.89888   0.75000   0.56250   0.05083  Uani   1.00
C4788  C     0.84598   0.75000   0.56250   0.05433  Uani   1.00
C4789  C     0.93210   0.75000   0.68750   0.04747  Uani   1.00
C4790  C     0.82322   0.75000   0.68750   0.04137  Uani   1.00
C4791  C     0.85113   0.75000   0.68750   0.05083  Uani   1.00
C4792  C     0.90403   0.75000   0.68750   0.05433  Uani   1.00
C4793  C     0.75000   0.81790   0.62500   0.04747  Uani   1.00
C4794  C     0.75000   0.92678   0.62500   0.04137  Uani   1.00
C4795  C     0.75000   0.89888   0.62500   0.05083  Uani   1.00
C4796  C     0.75000   0.84598   0.62500   0.05433  Uani   1.00
C4797  C     0.75000   0.93210   0.50000   0.04747  Uani   1.00
C4798  C     0.75000   0.82322   0.50000   0.04137  Uani   1.00
C4799  C     0.75000   0.85112   0.50000   0.05083  Uani   1.00
C4800  C     0.75000   0.90402   0.50000   0.05433  Uani   1.00
N4801  N     0.21686   0.24600   0.82373   0.03357  Uani   1.00
N4802  N     0.02778   0.00163   0.80085   0.03837  Uani   1.00
C4803  C     0.19301   0.24380   0.83035   0.04437  Uani   1.00
H4804  H     0.18780   0.23865   0.84545   0.05300  Uiso   1.00
C4805  C     0.05177   0.00253   0.79393   0.05277  Uani   1.00
H4806  H     0.05700   0.00465   0.77823   0.06300  Uiso   1.00
C4807  C     0.10943   0.00565   0.79278   0.06813  Uani   1.00
H4808  H     0.10068   0.00990   0.77890   0.08200  Uiso   1.00
C4809  C     0.13528   0.00528   0.79270   0.07560  Uani   1.00
H4810  H     0.14398   0.00875   0.77863   0.09100  Uiso   1.00
N4811  N     0.03314   0.00400   0.94873   0.03357  Uani   1.00
N4812  N     0.22221   0.24837   0.92585   0.03837  Uani   1.00
C4813  C     0.05699   0.00620   0.95535   0.04437  Uani   1.00
H4814  H     0.06220   0.01135   0.97045   0.05300  Uiso   1.00
C4815  C     0.19823   0.24747   0.91893   0.05277  Uani   1.00
H4816  H     0.19300   0.24535   0.90323   0.06300  Uiso   1.00
C4817  C     0.14057   0.24435   0.91778   0.06813  Uani   1.00
H4818  H     0.14932   0.24010   0.90390   0.08200  Uiso   1.00
C4819  C     0.11472   0.24472   0.91770   0.07560  Uani   1.00
H4820  H     0.10602   0.24125   0.90363   0.09100  Uiso   1.00
N4821  N     0.00400   0.21686   0.88623   0.03357  Uani   1.00
N4822  N     0.24837   0.02779   0.86335   0.03837  Uani   1.00
C4823  C     0.00620   0.19301   0.89285   0.04437  Uani   1.00
H4824  H     0.01135   0.18780   0.90795   0.05300  Uiso   1.00
C4825  C     0.24748   0.05178   0.85643   0.05277  Uani   1.00
H4826  H     0.24535   0.05700   0.84073   0.06300  Uiso   1.00
C4827  C     0.24435   0.10943   0.85528   0.06813  Uani   1.00
H4828  H     0.24010   0.10068   0.84140   0.08200  Uiso   1.00
C4829  C     0.24473   0.13528   0.85520   0.07560  Uani   1.00
H4830  H     0.24125   0.14398   0.84113   0.09100  Uiso   1.00
N4831  N     0.24600   0.03314   0.76123   0.03357  Uani   1.00
N4832  N     0.00163   0.22221   0.98835   0.03837  Uani   1.00
C4833  C     0.24380   0.05699   0.76785   0.04437  Uani   1.00
H4834  H     0.23865   0.06220   0.78295   0.05300  Uiso   1.00
C4835  C     0.00253   0.19823   0.98143   0.05277  Uani   1.00
H4836  H     0.00465   0.19300   0.96573   0.06300  Uiso   1.00
C4837  C     0.00565   0.14058   0.98028   0.06813  Uani   1.00
H4838  H     0.00990   0.14933   0.96640   0.08200  Uiso   1.00
C4839  C     0.00528   0.11472   0.98020   0.07560  Uani   1.00
H4840  H     0.00875   0.10602   0.96613   0.09100  Uiso   1.00
N4841  N     0.03314   0.24600   0.92627   0.03357  Uani   1.00
N4842  N     0.22221   0.00163   0.94915   0.03837  Uani   1.00
C4843  C     0.05699   0.24380   0.91965   0.04437  Uani   1.00
H4844  H     0.06220   0.23865   0.90455   0.05300  Uiso   1.00
C4845  C     0.19823   0.00253   0.95608   0.05277  Uani   1.00
H4846  H     0.19300   0.00465   0.97178   0.06300  Uiso   1.00
C4847  C     0.14057   0.00565   0.95723   0.06813  Uani   1.00
H4848  H     0.14932   0.00990   0.97110   0.08200  Uiso   1.00
C4849  C     0.11472   0.00528   0.95730   0.07560  Uani   1.00
H4850  H     0.10602   0.00875   0.97138   0.09100  Uiso   1.00
N4851  N     0.21686   0.00400   0.80127   0.03357  Uani   1.00
N4852  N     0.02778   0.24837   0.82415   0.03837  Uani   1.00
C4853  C     0.19301   0.00620   0.79465   0.04437  Uani   1.00
H4854  H     0.18780   0.01135   0.77955   0.05300  Uiso   1.00
C4855  C     0.05177   0.24747   0.83108   0.05277  Uani   1.00
H4856  H     0.05700   0.24535   0.84678   0.06300  Uiso   1.00
C4857  C     0.10943   0.24435   0.83223   0.06813  Uani   1.00
H4858  H     0.10068   0.24010   0.84610   0.08200  Uiso   1.00
C4859  C     0.13528   0.24472   0.83230   0.07560  Uani   1.00
H4860  H     0.14398   0.24125   0.84638   0.09100  Uiso   1.00
N4861  N     0.24600   0.21686   0.86377   0.03357  Uani   1.00
N4862  N     0.00163   0.02779   0.88665   0.03837  Uani   1.00
C4863  C     0.24380   0.19301   0.85715   0.04437  Uani   1.00
H4864  H     0.23865   0.18780   0.84205   0.05300  Uiso   1.00
C4865  C     0.00253   0.05178   0.89358   0.05277  Uani   1.00
H4866  H     0.00465   0.05700   0.90928   0.06300  Uiso   1.00
C4867  C     0.00565   0.10943   0.89473   0.06813  Uani   1.00
H4868  H     0.00990   0.10068   0.90860   0.08200  Uiso   1.00
C4869  C     0.00528   0.13528   0.89480   0.07560  Uani   1.00
H4870  H     0.00875   0.14398   0.90888   0.09100  Uiso   1.00
N4871  N     0.00400   0.03314   0.98877   0.03357  Uani   1.00
N4872  N     0.24837   0.22221   0.76165   0.03837  Uani   1.00
C4873  C     0.00620   0.05699   0.98215   0.04437  Uani   1.00
H4874  H     0.01135   0.06220   0.96705   0.05300  Uiso   1.00
C4875  C     0.24748   0.19823   0.76858   0.05277  Uani   1.00
H4876  H     0.24535   0.19300   0.78428   0.06300  Uiso   1.00
C4877  C     0.24435   0.14058   0.76973   0.06813  Uani   1.00
H4878  H     0.24010   0.14933   0.78360   0.08200  Uiso   1.00
C4879  C     0.24473   0.11472   0.76980   0.07560  Uani   1.00
H4880  H     0.24125   0.10602   0.78388   0.09100  Uiso   1.00
Co4881 Co    0.24721   0.24721   0.84375   0.02543  Uani   1.00
Co4882 Co    0.00279   0.00279   0.96875   0.02543  Uani   1.00
Co4883 Co    0.00279   0.24721   0.90625   0.02543  Uani   1.00
Co4884 Co    0.24721   0.00279   0.78125   0.02543  Uani   1.00
C4885  C     0.06790   0.00000   0.81250   0.04747  Uani   1.00
C4886  C     0.17678   0.00000   0.81250   0.04137  Uani   1.00
C4887  C     0.14888   0.00000   0.81250   0.05083  Uani   1.00
C4888  C     0.09598   0.00000   0.81250   0.05433  Uani   1.00
C4889  C     0.18210   0.00000   0.93750   0.04747  Uani   1.00
C4890  C     0.07322   0.00000   0.93750   0.04137  Uani   1.00
C4891  C     0.10112   0.00000   0.93750   0.05083  Uani   1.00
C4892  C     0.15402   0.00000   0.93750   0.05433  Uani   1.00
C4893  C     0.00000   0.06790   0.87500   0.04747  Uani   1.00
C4894  C     0.00000   0.17678   0.87500   0.04137  Uani   1.00
C4895  C     0.00000   0.14888   0.87500   0.05083  Uani   1.00
C4896  C     0.00000   0.09598   0.87500   0.05433  Uani   1.00
C4897  C     0.00000   0.18210   0.75000   0.04747  Uani   1.00
C4898  C     0.00000   0.07322   0.75000   0.04137  Uani   1.00
C4899  C     0.00000   0.10112   0.75000   0.05083  Uani   1.00
C4900  C     0.00000   0.15402   0.75000   0.05433  Uani   1.00
N4901  N     0.46686   0.24600   0.82373   0.03357  Uani   1.00
N4902  N     0.27778   0.00163   0.80085   0.03837  Uani   1.00
C4903  C     0.44301   0.24380   0.83035   0.04437  Uani   1.00
H4904  H     0.43780   0.23865   0.84545   0.05300  Uiso   1.00
C4905  C     0.30177   0.00253   0.79393   0.05277  Uani   1.00
H4906  H     0.30700   0.00465   0.77823   0.06300  Uiso   1.00
C4907  C     0.35943   0.00565   0.79278   0.06813  Uani   1.00
H4908  H     0.35068   0.00990   0.77890   0.08200  Uiso   1.00
C4909  C     0.38528   0.00528   0.79270   0.07560  Uani   1.00
H4910  H     0.39398   0.00875   0.77863   0.09100  Uiso   1.00
N4911  N     0.28314   0.00400   0.94873   0.03357  Uani   1.00
N4912  N     0.47222   0.24837   0.92585   0.03837  Uani   1.00
C4913  C     0.30699   0.00620   0.95535   0.04437  Uani   1.00
H4914  H     0.31220   0.01135   0.97045   0.05300  Uiso   1.00
C4915  C     0.44822   0.24747   0.91893   0.05277  Uani   1.00
H4916  H     0.44300   0.24535   0.90323   0.06300  Uiso   1.00
C4917  C     0.39057   0.24435   0.91778   0.06813  Uani   1.00
H4918  H     0.39933   0.24010   0.90390   0.08200  Uiso   1.00
C4919  C     0.36472   0.24472   0.91770   0.07560  Uani   1.00
H4920  H     0.35602   0.24125   0.90363   0.09100  Uiso   1.00
N4921  N     0.25400   0.21686   0.88623   0.03357  Uani   1.00
N4922  N     0.49838   0.02779   0.86335   0.03837  Uani   1.00
C4923  C     0.25620   0.19301   0.89285   0.04437  Uani   1.00
H4924  H     0.26135   0.18780   0.90795   0.05300  Uiso   1.00
C4925  C     0.49748   0.05178   0.85643   0.05277  Uani   1.00
H4926  H     0.49535   0.05700   0.84073   0.06300  Uiso   1.00
C4927  C     0.49435   0.10943   0.85528   0.06813  Uani   1.00
H4928  H     0.49010   0.10068   0.84140   0.08200  Uiso   1.00
C4929  C     0.49473   0.13528   0.85520   0.07560  Uani   1.00
H4930  H     0.49125   0.14398   0.84113   0.09100  Uiso   1.00
N4931  N     0.49600   0.03314   0.76123   0.03357  Uani   1.00
N4932  N     0.25163   0.22221   0.98835   0.03837  Uani   1.00
C4933  C     0.49380   0.05699   0.76785   0.04437  Uani   1.00
H4934  H     0.48865   0.06220   0.78295   0.05300  Uiso   1.00
C4935  C     0.25253   0.19823   0.98143   0.05277  Uani   1.00
H4936  H     0.25465   0.19300   0.96573   0.06300  Uiso   1.00
C4937  C     0.25565   0.14058   0.98028   0.06813  Uani   1.00
H4938  H     0.25990   0.14933   0.96640   0.08200  Uiso   1.00
C4939  C     0.25528   0.11472   0.98020   0.07560  Uani   1.00
H4940  H     0.25875   0.10602   0.96613   0.09100  Uiso   1.00
N4941  N     0.28314   0.24600   0.92627   0.03357  Uani   1.00
N4942  N     0.47222   0.00163   0.94915   0.03837  Uani   1.00
C4943  C     0.30699   0.24380   0.91965   0.04437  Uani   1.00
H4944  H     0.31220   0.23865   0.90455   0.05300  Uiso   1.00
C4945  C     0.44822   0.00253   0.95608   0.05277  Uani   1.00
H4946  H     0.44300   0.00465   0.97178   0.06300  Uiso   1.00
C4947  C     0.39057   0.00565   0.95723   0.06813  Uani   1.00
H4948  H     0.39933   0.00990   0.97110   0.08200  Uiso   1.00
C4949  C     0.36472   0.00528   0.95730   0.07560  Uani   1.00
H4950  H     0.35602   0.00875   0.97138   0.09100  Uiso   1.00
N4951  N     0.46686   0.00400   0.80127   0.03357  Uani   1.00
N4952  N     0.27778   0.24837   0.82415   0.03837  Uani   1.00
C4953  C     0.44301   0.00620   0.79465   0.04437  Uani   1.00
H4954  H     0.43780   0.01135   0.77955   0.05300  Uiso   1.00
C4955  C     0.30177   0.24747   0.83108   0.05277  Uani   1.00
H4956  H     0.30700   0.24535   0.84678   0.06300  Uiso   1.00
C4957  C     0.35943   0.24435   0.83223   0.06813  Uani   1.00
H4958  H     0.35068   0.24010   0.84610   0.08200  Uiso   1.00
C4959  C     0.38528   0.24472   0.83230   0.07560  Uani   1.00
H4960  H     0.39398   0.24125   0.84638   0.09100  Uiso   1.00
N4961  N     0.49600   0.21686   0.86377   0.03357  Uani   1.00
N4962  N     0.25163   0.02779   0.88665   0.03837  Uani   1.00
C4963  C     0.49380   0.19301   0.85715   0.04437  Uani   1.00
H4964  H     0.48865   0.18780   0.84205   0.05300  Uiso   1.00
C4965  C     0.25253   0.05178   0.89358   0.05277  Uani   1.00
H4966  H     0.25465   0.05700   0.90928   0.06300  Uiso   1.00
C4967  C     0.25565   0.10943   0.89473   0.06813  Uani   1.00
H4968  H     0.25990   0.10068   0.90860   0.08200  Uiso   1.00
C4969  C     0.25528   0.13528   0.89480   0.07560  Uani   1.00
H4970  H     0.25875   0.14398   0.90888   0.09100  Uiso   1.00
N4971  N     0.25400   0.03314   0.98877   0.03357  Uani   1.00
N4972  N     0.49838   0.22221   0.76165   0.03837  Uani   1.00
C4973  C     0.25620   0.05699   0.98215   0.04437  Uani   1.00
H4974  H     0.26135   0.06220   0.96705   0.05300  Uiso   1.00
C4975  C     0.49748   0.19823   0.76858   0.05277  Uani   1.00
H4976  H     0.49535   0.19300   0.78428   0.06300  Uiso   1.00
C4977  C     0.49435   0.14058   0.76973   0.06813  Uani   1.00
H4978  H     0.49010   0.14933   0.78360   0.08200  Uiso   1.00
C4979  C     0.49473   0.11472   0.76980   0.07560  Uani   1.00
H4980  H     0.49125   0.10602   0.78388   0.09100  Uiso   1.00
Co4981 Co    0.49721   0.24721   0.84375   0.02543  Uani   1.00
Co4982 Co    0.25279   0.00279   0.96875   0.02543  Uani   1.00
Co4983 Co    0.25279   0.24721   0.90625   0.02543  Uani   1.00
Co4984 Co    0.49721   0.00279   0.78125   0.02543  Uani   1.00
C4985  C     0.31790   0.00000   0.81250   0.04747  Uani   1.00
C4986  C     0.42678   0.00000   0.81250   0.04137  Uani   1.00
C4987  C     0.39888   0.00000   0.81250   0.05083  Uani   1.00
C4988  C     0.34598   0.00000   0.81250   0.05433  Uani   1.00
C4989  C     0.43210   0.00000   0.93750   0.04747  Uani   1.00
C4990  C     0.32322   0.00000   0.93750   0.04137  Uani   1.00
C4991  C     0.35112   0.00000   0.93750   0.05083  Uani   1.00
C4992  C     0.40403   0.00000   0.93750   0.05433  Uani   1.00
C4993  C     0.25000   0.06790   0.87500   0.04747  Uani   1.00
C4994  C     0.25000   0.17678   0.87500   0.04137  Uani   1.00
C4995  C     0.25000   0.14888   0.87500   0.05083  Uani   1.00
C4996  C     0.25000   0.09598   0.87500   0.05433  Uani   1.00
C4997  C     0.25000   0.18210   0.75000   0.04747  Uani   1.00
C4998  C     0.25000   0.07322   0.75000   0.04137  Uani   1.00
C4999  C     0.25000   0.10112   0.75000   0.05083  Uani   1.00
C5000  C     0.25000   0.15402   0.75000   0.05433  Uani   1.00
N5001  N     0.71686   0.24600   0.82373   0.03357  Uani   1.00
N5002  N     0.52779   0.00163   0.80085   0.03837  Uani   1.00
C5003  C     0.69301   0.24380   0.83035   0.04437  Uani   1.00
H5004  H     0.68780   0.23865   0.84545   0.05300  Uiso   1.00
C5005  C     0.55178   0.00253   0.79393   0.05277  Uani   1.00
H5006  H     0.55700   0.00465   0.77823   0.06300  Uiso   1.00
C5007  C     0.60943   0.00565   0.79278   0.06813  Uani   1.00
H5008  H     0.60068   0.00990   0.77890   0.08200  Uiso   1.00
C5009  C     0.63528   0.00528   0.79270   0.07560  Uani   1.00
H5010  H     0.64398   0.00875   0.77863   0.09100  Uiso   1.00
N5011  N     0.53314   0.00400   0.94873   0.03357  Uani   1.00
N5012  N     0.72222   0.24837   0.92585   0.03837  Uani   1.00
C5013  C     0.55699   0.00620   0.95535   0.04437  Uani   1.00
H5014  H     0.56220   0.01135   0.97045   0.05300  Uiso   1.00
C5015  C     0.69823   0.24747   0.91893   0.05277  Uani   1.00
H5016  H     0.69300   0.24535   0.90323   0.06300  Uiso   1.00
C5017  C     0.64058   0.24435   0.91778   0.06813  Uani   1.00
H5018  H     0.64933   0.24010   0.90390   0.08200  Uiso   1.00
C5019  C     0.61473   0.24472   0.91770   0.07560  Uani   1.00
H5020  H     0.60603   0.24125   0.90363   0.09100  Uiso   1.00
N5021  N     0.50400   0.21686   0.88623   0.03357  Uani   1.00
N5022  N     0.74837   0.02779   0.86335   0.03837  Uani   1.00
C5023  C     0.50620   0.19301   0.89285   0.04437  Uani   1.00
H5024  H     0.51135   0.18780   0.90795   0.05300  Uiso   1.00
C5025  C     0.74748   0.05178   0.85643   0.05277  Uani   1.00
H5026  H     0.74535   0.05700   0.84073   0.06300  Uiso   1.00
C5027  C     0.74435   0.10943   0.85528   0.06813  Uani   1.00
H5028  H     0.74010   0.10068   0.84140   0.08200  Uiso   1.00
C5029  C     0.74473   0.13528   0.85520   0.07560  Uani   1.00
H5030  H     0.74125   0.14398   0.84113   0.09100  Uiso   1.00
N5031  N     0.74600   0.03314   0.76123   0.03357  Uani   1.00
N5032  N     0.50163   0.22221   0.98835   0.03837  Uani   1.00
C5033  C     0.74380   0.05699   0.76785   0.04437  Uani   1.00
H5034  H     0.73865   0.06220   0.78295   0.05300  Uiso   1.00
C5035  C     0.50253   0.19823   0.98143   0.05277  Uani   1.00
H5036  H     0.50465   0.19300   0.96573   0.06300  Uiso   1.00
C5037  C     0.50565   0.14058   0.98028   0.06813  Uani   1.00
H5038  H     0.50990   0.14933   0.96640   0.08200  Uiso   1.00
C5039  C     0.50528   0.11472   0.98020   0.07560  Uani   1.00
H5040  H     0.50875   0.10602   0.96613   0.09100  Uiso   1.00
N5041  N     0.53314   0.24600   0.92627   0.03357  Uani   1.00
N5042  N     0.72222   0.00163   0.94915   0.03837  Uani   1.00
C5043  C     0.55699   0.24380   0.91965   0.04437  Uani   1.00
H5044  H     0.56220   0.23865   0.90455   0.05300  Uiso   1.00
C5045  C     0.69823   0.00253   0.95608   0.05277  Uani   1.00
H5046  H     0.69300   0.00465   0.97178   0.06300  Uiso   1.00
C5047  C     0.64058   0.00565   0.95723   0.06813  Uani   1.00
H5048  H     0.64933   0.00990   0.97110   0.08200  Uiso   1.00
C5049  C     0.61473   0.00528   0.95730   0.07560  Uani   1.00
H5050  H     0.60603   0.00875   0.97138   0.09100  Uiso   1.00
N5051  N     0.71686   0.00400   0.80127   0.03357  Uani   1.00
N5052  N     0.52779   0.24837   0.82415   0.03837  Uani   1.00
C5053  C     0.69301   0.00620   0.79465   0.04437  Uani   1.00
H5054  H     0.68780   0.01135   0.77955   0.05300  Uiso   1.00
C5055  C     0.55178   0.24747   0.83108   0.05277  Uani   1.00
H5056  H     0.55700   0.24535   0.84678   0.06300  Uiso   1.00
C5057  C     0.60943   0.24435   0.83223   0.06813  Uani   1.00
H5058  H     0.60068   0.24010   0.84610   0.08200  Uiso   1.00
C5059  C     0.63528   0.24472   0.83230   0.07560  Uani   1.00
H5060  H     0.64398   0.24125   0.84638   0.09100  Uiso   1.00
N5061  N     0.74600   0.21686   0.86377   0.03357  Uani   1.00
N5062  N     0.50163   0.02779   0.88665   0.03837  Uani   1.00
C5063  C     0.74380   0.19301   0.85715   0.04437  Uani   1.00
H5064  H     0.73865   0.18780   0.84205   0.05300  Uiso   1.00
C5065  C     0.50253   0.05178   0.89358   0.05277  Uani   1.00
H5066  H     0.50465   0.05700   0.90928   0.06300  Uiso   1.00
C5067  C     0.50565   0.10943   0.89473   0.06813  Uani   1.00
H5068  H     0.50990   0.10068   0.90860   0.08200  Uiso   1.00
C5069  C     0.50528   0.13528   0.89480   0.07560  Uani   1.00
H5070  H     0.50875   0.14398   0.90888   0.09100  Uiso   1.00
N5071  N     0.50400   0.03314   0.98877   0.03357  Uani   1.00
N5072  N     0.74837   0.22221   0.76165   0.03837  Uani   1.00
C5073  C     0.50620   0.05699   0.98215   0.04437  Uani   1.00
H5074  H     0.51135   0.06220   0.96705   0.05300  Uiso   1.00
C5075  C     0.74748   0.19823   0.76858   0.05277  Uani   1.00
H5076  H     0.74535   0.19300   0.78428   0.06300  Uiso   1.00
C5077  C     0.74435   0.14058   0.76973   0.06813  Uani   1.00
H5078  H     0.74010   0.14933   0.78360   0.08200  Uiso   1.00
C5079  C     0.74473   0.11472   0.76980   0.07560  Uani   1.00
H5080  H     0.74125   0.10602   0.78388   0.09100  Uiso   1.00
Co5081 Co    0.74721   0.24721   0.84375   0.02543  Uani   1.00
Co5082 Co    0.50279   0.00279   0.96875   0.02543  Uani   1.00
Co5083 Co    0.50279   0.24721   0.90625   0.02543  Uani   1.00
Co5084 Co    0.74721   0.00279   0.78125   0.02543  Uani   1.00
C5085  C     0.56790   0.00000   0.81250   0.04747  Uani   1.00
C5086  C     0.67678   0.00000   0.81250   0.04137  Uani   1.00
C5087  C     0.64888   0.00000   0.81250   0.05083  Uani   1.00
C5088  C     0.59598   0.00000   0.81250   0.05433  Uani   1.00
C5089  C     0.68210   0.00000   0.93750   0.04747  Uani   1.00
C5090  C     0.57322   0.00000   0.93750   0.04137  Uani   1.00
C5091  C     0.60112   0.00000   0.93750   0.05083  Uani   1.00
C5092  C     0.65402   0.00000   0.93750   0.05433  Uani   1.00
C5093  C     0.50000   0.06790   0.87500   0.04747  Uani   1.00
C5094  C     0.50000   0.17678   0.87500   0.04137  Uani   1.00
C5095  C     0.50000   0.14888   0.87500   0.05083  Uani   1.00
C5096  C     0.50000   0.09598   0.87500   0.05433  Uani   1.00
C5097  C     0.50000   0.18210   0.75000   0.04747  Uani   1.00
C5098  C     0.50000   0.07322   0.75000   0.04137  Uani   1.00
C5099  C     0.50000   0.10112   0.75000   0.05083  Uani   1.00
C5100  C     0.50000   0.15402   0.75000   0.05433  Uani   1.00
N5101  N     0.96686   0.24600   0.82373   0.03357  Uani   1.00
N5102  N     0.77779   0.00163   0.80085   0.03837  Uani   1.00
C5103  C     0.94301   0.24380   0.83035   0.04437  Uani   1.00
H5104  H     0.93780   0.23865   0.84545   0.05300  Uiso   1.00
C5105  C     0.80178   0.00253   0.79393   0.05277  Uani   1.00
H5106  H     0.80700   0.00465   0.77823   0.06300  Uiso   1.00
C5107  C     0.85943   0.00565   0.79278   0.06813  Uani   1.00
H5108  H     0.85068   0.00990   0.77890   0.08200  Uiso   1.00
C5109  C     0.88528   0.00528   0.79270   0.07560  Uani   1.00
H5110  H     0.89398   0.00875   0.77863   0.09100  Uiso   1.00
N5111  N     0.78314   0.00400   0.94873   0.03357  Uani   1.00
N5112  N     0.97222   0.24837   0.92585   0.03837  Uani   1.00
C5113  C     0.80699   0.00620   0.95535   0.04437  Uani   1.00
H5114  H     0.81220   0.01135   0.97045   0.05300  Uiso   1.00
C5115  C     0.94823   0.24747   0.91893   0.05277  Uani   1.00
H5116  H     0.94300   0.24535   0.90323   0.06300  Uiso   1.00
C5117  C     0.89058   0.24435   0.91778   0.06813  Uani   1.00
H5118  H     0.89933   0.24010   0.90390   0.08200  Uiso   1.00
C5119  C     0.86472   0.24472   0.91770   0.07560  Uani   1.00
H5120  H     0.85602   0.24125   0.90363   0.09100  Uiso   1.00
N5121  N     0.75400   0.21686   0.88623   0.03357  Uani   1.00
N5122  N     0.99838   0.02779   0.86335   0.03837  Uani   1.00
C5123  C     0.75620   0.19301   0.89285   0.04437  Uani   1.00
H5124  H     0.76135   0.18780   0.90795   0.05300  Uiso   1.00
C5125  C     0.99748   0.05178   0.85643   0.05277  Uani   1.00
H5126  H     0.99535   0.05700   0.84073   0.06300  Uiso   1.00
C5127  C     0.99435   0.10943   0.85528   0.06813  Uani   1.00
H5128  H     0.99010   0.10068   0.84140   0.08200  Uiso   1.00
C5129  C     0.99473   0.13528   0.85520   0.07560  Uani   1.00
H5130  H     0.99125   0.14398   0.84113   0.09100  Uiso   1.00
N5131  N     0.99600   0.03314   0.76123   0.03357  Uani   1.00
N5132  N     0.75163   0.22221   0.98835   0.03837  Uani   1.00
C5133  C     0.99380   0.05699   0.76785   0.04437  Uani   1.00
H5134  H     0.98865   0.06220   0.78295   0.05300  Uiso   1.00
C5135  C     0.75253   0.19823   0.98143   0.05277  Uani   1.00
H5136  H     0.75465   0.19300   0.96573   0.06300  Uiso   1.00
C5137  C     0.75565   0.14058   0.98028   0.06813  Uani   1.00
H5138  H     0.75990   0.14933   0.96640   0.08200  Uiso   1.00
C5139  C     0.75528   0.11472   0.98020   0.07560  Uani   1.00
H5140  H     0.75875   0.10602   0.96613   0.09100  Uiso   1.00
N5141  N     0.78314   0.24600   0.92627   0.03357  Uani   1.00
N5142  N     0.97222   0.00163   0.94915   0.03837  Uani   1.00
C5143  C     0.80699   0.24380   0.91965   0.04437  Uani   1.00
H5144  H     0.81220   0.23865   0.90455   0.05300  Uiso   1.00
C5145  C     0.94823   0.00253   0.95608   0.05277  Uani   1.00
H5146  H     0.94300   0.00465   0.97178   0.06300  Uiso   1.00
C5147  C     0.89058   0.00565   0.95723   0.06813  Uani   1.00
H5148  H     0.89933   0.00990   0.97110   0.08200  Uiso   1.00
C5149  C     0.86472   0.00528   0.95730   0.07560  Uani   1.00
H5150  H     0.85602   0.00875   0.97138   0.09100  Uiso   1.00
N5151  N     0.96686   0.00400   0.80127   0.03357  Uani   1.00
N5152  N     0.77779   0.24837   0.82415   0.03837  Uani   1.00
C5153  C     0.94301   0.00620   0.79465   0.04437  Uani   1.00
H5154  H     0.93780   0.01135   0.77955   0.05300  Uiso   1.00
C5155  C     0.80178   0.24747   0.83108   0.05277  Uani   1.00
H5156  H     0.80700   0.24535   0.84678   0.06300  Uiso   1.00
C5157  C     0.85943   0.24435   0.83223   0.06813  Uani   1.00
H5158  H     0.85068   0.24010   0.84610   0.08200  Uiso   1.00
C5159  C     0.88528   0.24472   0.83230   0.07560  Uani   1.00
H5160  H     0.89398   0.24125   0.84638   0.09100  Uiso   1.00
N5161  N     0.99600   0.21686   0.86377   0.03357  Uani   1.00
N5162  N     0.75163   0.02779   0.88665   0.03837  Uani   1.00
C5163  C     0.99380   0.19301   0.85715   0.04437  Uani   1.00
H5164  H     0.98865   0.18780   0.84205   0.05300  Uiso   1.00
C5165  C     0.75253   0.05178   0.89358   0.05277  Uani   1.00
H5166  H     0.75465   0.05700   0.90928   0.06300  Uiso   1.00
C5167  C     0.75565   0.10943   0.89473   0.06813  Uani   1.00
H5168  H     0.75990   0.10068   0.90860   0.08200  Uiso   1.00
C5169  C     0.75528   0.13528   0.89480   0.07560  Uani   1.00
H5170  H     0.75875   0.14398   0.90888   0.09100  Uiso   1.00
N5171  N     0.75400   0.03314   0.98877   0.03357  Uani   1.00
N5172  N     0.99838   0.22221   0.76165   0.03837  Uani   1.00
C5173  C     0.75620   0.05699   0.98215   0.04437  Uani   1.00
H5174  H     0.76135   0.06220   0.96705   0.05300  Uiso   1.00
C5175  C     0.99748   0.19823   0.76858   0.05277  Uani   1.00
H5176  H     0.99535   0.19300   0.78428   0.06300  Uiso   1.00
C5177  C     0.99435   0.14058   0.76973   0.06813  Uani   1.00
H5178  H     0.99010   0.14933   0.78360   0.08200  Uiso   1.00
C5179  C     0.99473   0.11472   0.76980   0.07560  Uani   1.00
H5180  H     0.99125   0.10602   0.78388   0.09100  Uiso   1.00
Co5181 Co    0.99721   0.24721   0.84375   0.02543  Uani   1.00
Co5182 Co    0.75279   0.00279   0.96875   0.02543  Uani   1.00
Co5183 Co    0.75279   0.24721   0.90625   0.02543  Uani   1.00
Co5184 Co    0.99721   0.00279   0.78125   0.02543  Uani   1.00
C5185  C     0.81790   0.00000   0.81250   0.04747  Uani   1.00
C5186  C     0.92678   0.00000   0.81250   0.04137  Uani   1.00
C5187  C     0.89888   0.00000   0.81250   0.05083  Uani   1.00
C5188  C     0.84598   0.00000   0.81250   0.05433  Uani   1.00
C5189  C     0.93210   0.00000   0.93750   0.04747  Uani   1.00
C5190  C     0.82322   0.00000   0.93750   0.04137  Uani   1.00
C5191  C     0.85113   0.00000   0.93750   0.05083  Uani   1.00
C5192  C     0.90403   0.00000   0.93750   0.05433  Uani   1.00
C5193  C     0.75000   0.06790   0.87500   0.04747  Uani   1.00
C5194  C     0.75000   0.17678   0.87500   0.04137  Uani   1.00
C5195  C     0.75000   0.14888   0.87500   0.05083  Uani   1.00
C5196  C     0.75000   0.09598   0.87500   0.05433  Uani   1.00
C5197  C     0.75000   0.18210   0.75000   0.04747  Uani   1.00
C5198  C     0.75000   0.07322   0.75000   0.04137  Uani   1.00
C5199  C     0.75000   0.10112   0.75000   0.05083  Uani   1.00
C5200  C     0.75000   0.15402   0.75000   0.05433  Uani   1.00
N5201  N     0.21686   0.49600   0.82373   0.03357  Uani   1.00
N5202  N     0.02778   0.25163   0.80085   0.03837  Uani   1.00
C5203  C     0.19301   0.49380   0.83035   0.04437  Uani   1.00
H5204  H     0.18780   0.48865   0.84545   0.05300  Uiso   1.00
C5205  C     0.05177   0.25253   0.79393   0.05277  Uani   1.00
H5206  H     0.05700   0.25465   0.77823   0.06300  Uiso   1.00
C5207  C     0.10943   0.25565   0.79278   0.06813  Uani   1.00
H5208  H     0.10068   0.25990   0.77890   0.08200  Uiso   1.00
C5209  C     0.13528   0.25528   0.79270   0.07560  Uani   1.00
H5210  H     0.14398   0.25875   0.77863   0.09100  Uiso   1.00
N5211  N     0.03314   0.25400   0.94873   0.03357  Uani   1.00
N5212  N     0.22221   0.49837   0.92585   0.03837  Uani   1.00
C5213  C     0.05699   0.25620   0.95535   0.04437  Uani   1.00
H5214  H     0.06220   0.26135   0.97045   0.05300  Uiso   1.00
C5215  C     0.19823   0.49747   0.91893   0.05277  Uani   1.00
H5216  H     0.19300   0.49535   0.90323   0.06300  Uiso   1.00
C5217  C     0.14057   0.49435   0.91778   0.06813  Uani   1.00
H5218  H     0.14932   0.49010   0.90390   0.08200  Uiso   1.00
C5219  C     0.11472   0.49472   0.91770   0.07560  Uani   1.00
H5220  H     0.10602   0.49125   0.90363   0.09100  Uiso   1.00
N5221  N     0.00400   0.46686   0.88623   0.03357  Uani   1.00
N5222  N     0.24837   0.27779   0.86335   0.03837  Uani   1.00
C5223  C     0.00620   0.44301   0.89285   0.04437  Uani   1.00
H5224  H     0.01135   0.43780   0.90795   0.05300  Uiso   1.00
C5225  C     0.24748   0.30178   0.85643   0.05277  Uani   1.00
H5226  H     0.24535   0.30700   0.84073   0.06300  Uiso   1.00
C5227  C     0.24435   0.35943   0.85528   0.06813  Uani   1.00
H5228  H     0.24010   0.35068   0.84140   0.08200  Uiso   1.00
C5229  C     0.24473   0.38528   0.85520   0.07560  Uani   1.00
H5230  H     0.24125   0.39398   0.84113   0.09100  Uiso   1.00
N5231  N     0.24600   0.28314   0.76123   0.03357  Uani   1.00
N5232  N     0.00163   0.47221   0.98835   0.03837  Uani   1.00
C5233  C     0.24380   0.30699   0.76785   0.04437  Uani   1.00
H5234  H     0.23865   0.31220   0.78295   0.05300  Uiso   1.00
C5235  C     0.00253   0.44823   0.98143   0.05277  Uani   1.00
H5236  H     0.00465   0.44300   0.96573   0.06300  Uiso   1.00
C5237  C     0.00565   0.39058   0.98028   0.06813  Uani   1.00
H5238  H     0.00990   0.39933   0.96640   0.08200  Uiso   1.00
C5239  C     0.00528   0.36472   0.98020   0.07560  Uani   1.00
H5240  H     0.00875   0.35602   0.96613   0.09100  Uiso   1.00
N5241  N     0.03314   0.49600   0.92627   0.03357  Uani   1.00
N5242  N     0.22221   0.25163   0.94915   0.03837  Uani   1.00
C5243  C     0.05699   0.49380   0.91965   0.04437  Uani   1.00
H5244  H     0.06220   0.48865   0.90455   0.05300  Uiso   1.00
C5245  C     0.19823   0.25253   0.95608   0.05277  Uani   1.00
H5246  H     0.19300   0.25465   0.97178   0.06300  Uiso   1.00
C5247  C     0.14057   0.25565   0.95723   0.06813  Uani   1.00
H5248  H     0.14932   0.25990   0.97110   0.08200  Uiso   1.00
C5249  C     0.11472   0.25528   0.95730   0.07560  Uani   1.00
H5250  H     0.10602   0.25875   0.97138   0.09100  Uiso   1.00
N5251  N     0.21686   0.25400   0.80127   0.03357  Uani   1.00
N5252  N     0.02778   0.49837   0.82415   0.03837  Uani   1.00
C5253  C     0.19301   0.25620   0.79465   0.04437  Uani   1.00
H5254  H     0.18780   0.26135   0.77955   0.05300  Uiso   1.00
C5255  C     0.05177   0.49747   0.83108   0.05277  Uani   1.00
H5256  H     0.05700   0.49535   0.84678   0.06300  Uiso   1.00
C5257  C     0.10943   0.49435   0.83223   0.06813  Uani   1.00
H5258  H     0.10068   0.49010   0.84610   0.08200  Uiso   1.00
C5259  C     0.13528   0.49472   0.83230   0.07560  Uani   1.00
H5260  H     0.14398   0.49125   0.84638   0.09100  Uiso   1.00
N5261  N     0.24600   0.46686   0.86377   0.03357  Uani   1.00
N5262  N     0.00163   0.27779   0.88665   0.03837  Uani   1.00
C5263  C     0.24380   0.44301   0.85715   0.04437  Uani   1.00
H5264  H     0.23865   0.43780   0.84205   0.05300  Uiso   1.00
C5265  C     0.00253   0.30178   0.89358   0.05277  Uani   1.00
H5266  H     0.00465   0.30700   0.90928   0.06300  Uiso   1.00
C5267  C     0.00565   0.35943   0.89473   0.06813  Uani   1.00
H5268  H     0.00990   0.35068   0.90860   0.08200  Uiso   1.00
C5269  C     0.00528   0.38528   0.89480   0.07560  Uani   1.00
H5270  H     0.00875   0.39398   0.90888   0.09100  Uiso   1.00
N5271  N     0.00400   0.28314   0.98877   0.03357  Uani   1.00
N5272  N     0.24837   0.47221   0.76165   0.03837  Uani   1.00
C5273  C     0.00620   0.30699   0.98215   0.04437  Uani   1.00
H5274  H     0.01135   0.31220   0.96705   0.05300  Uiso   1.00
C5275  C     0.24748   0.44823   0.76858   0.05277  Uani   1.00
H5276  H     0.24535   0.44300   0.78428   0.06300  Uiso   1.00
C5277  C     0.24435   0.39058   0.76973   0.06813  Uani   1.00
H5278  H     0.24010   0.39933   0.78360   0.08200  Uiso   1.00
C5279  C     0.24473   0.36472   0.76980   0.07560  Uani   1.00
H5280  H     0.24125   0.35602   0.78388   0.09100  Uiso   1.00
Co5281 Co    0.24721   0.49721   0.84375   0.02543  Uani   1.00
Co5282 Co    0.00279   0.25279   0.96875   0.02543  Uani   1.00
Co5283 Co    0.00279   0.49721   0.90625   0.02543  Uani   1.00
Co5284 Co    0.24721   0.25279   0.78125   0.02543  Uani   1.00
C5285  C     0.06790   0.25000   0.81250   0.04747  Uani   1.00
C5286  C     0.17678   0.25000   0.81250   0.04137  Uani   1.00
C5287  C     0.14888   0.25000   0.81250   0.05083  Uani   1.00
C5288  C     0.09598   0.25000   0.81250   0.05433  Uani   1.00
C5289  C     0.18210   0.25000   0.93750   0.04747  Uani   1.00
C5290  C     0.07322   0.25000   0.93750   0.04137  Uani   1.00
C5291  C     0.10112   0.25000   0.93750   0.05083  Uani   1.00
C5292  C     0.15402   0.25000   0.93750   0.05433  Uani   1.00
C5293  C     0.00000   0.31790   0.87500   0.04747  Uani   1.00
C5294  C     0.00000   0.42678   0.87500   0.04137  Uani   1.00
C5295  C     0.00000   0.39888   0.87500   0.05083  Uani   1.00
C5296  C     0.00000   0.34598   0.87500   0.05433  Uani   1.00
C5297  C     0.00000   0.43210   0.75000   0.04747  Uani   1.00
C5298  C     0.00000   0.32322   0.75000   0.04137  Uani   1.00
C5299  C     0.00000   0.35112   0.75000   0.05083  Uani   1.00
C5300  C     0.00000   0.40402   0.75000   0.05433  Uani   1.00
N5301  N     0.46686   0.49600   0.82373   0.03357  Uani   1.00
N5302  N     0.27778   0.25163   0.80085   0.03837  Uani   1.00
C5303  C     0.44301   0.49380   0.83035   0.04437  Uani   1.00
H5304  H     0.43780   0.48865   0.84545   0.05300  Uiso   1.00
C5305  C     0.30177   0.25253   0.79393   0.05277  Uani   1.00
H5306  H     0.30700   0.25465   0.77823   0.06300  Uiso   1.00
C5307  C     0.35943   0.25565   0.79278   0.06813  Uani   1.00
H5308  H     0.35068   0.25990   0.77890   0.08200  Uiso   1.00
C5309  C     0.38528   0.25528   0.79270   0.07560  Uani   1.00
H5310  H     0.39398   0.25875   0.77863   0.09100  Uiso   1.00
N5311  N     0.28314   0.25400   0.94873   0.03357  Uani   1.00
N5312  N     0.47222   0.49837   0.92585   0.03837  Uani   1.00
C5313  C     0.30699   0.25620   0.95535   0.04437  Uani   1.00
H5314  H     0.31220   0.26135   0.97045   0.05300  Uiso   1.00
C5315  C     0.44822   0.49747   0.91893   0.05277  Uani   1.00
H5316  H     0.44300   0.49535   0.90323   0.06300  Uiso   1.00
C5317  C     0.39057   0.49435   0.91778   0.06813  Uani   1.00
H5318  H     0.39933   0.49010   0.90390   0.08200  Uiso   1.00
C5319  C     0.36472   0.49472   0.91770   0.07560  Uani   1.00
H5320  H     0.35602   0.49125   0.90363   0.09100  Uiso   1.00
N5321  N     0.25400   0.46686   0.88623   0.03357  Uani   1.00
N5322  N     0.49838   0.27779   0.86335   0.03837  Uani   1.00
C5323  C     0.25620   0.44301   0.89285   0.04437  Uani   1.00
H5324  H     0.26135   0.43780   0.90795   0.05300  Uiso   1.00
C5325  C     0.49748   0.30178   0.85643   0.05277  Uani   1.00
H5326  H     0.49535   0.30700   0.84073   0.06300  Uiso   1.00
C5327  C     0.49435   0.35943   0.85528   0.06813  Uani   1.00
H5328  H     0.49010   0.35068   0.84140   0.08200  Uiso   1.00
C5329  C     0.49473   0.38528   0.85520   0.07560  Uani   1.00
H5330  H     0.49125   0.39398   0.84113   0.09100  Uiso   1.00
N5331  N     0.49600   0.28314   0.76123   0.03357  Uani   1.00
N5332  N     0.25163   0.47221   0.98835   0.03837  Uani   1.00
C5333  C     0.49380   0.30699   0.76785   0.04437  Uani   1.00
H5334  H     0.48865   0.31220   0.78295   0.05300  Uiso   1.00
C5335  C     0.25253   0.44823   0.98143   0.05277  Uani   1.00
H5336  H     0.25465   0.44300   0.96573   0.06300  Uiso   1.00
C5337  C     0.25565   0.39058   0.98028   0.06813  Uani   1.00
H5338  H     0.25990   0.39933   0.96640   0.08200  Uiso   1.00
C5339  C     0.25528   0.36472   0.98020   0.07560  Uani   1.00
H5340  H     0.25875   0.35602   0.96613   0.09100  Uiso   1.00
N5341  N     0.28314   0.49600   0.92627   0.03357  Uani   1.00
N5342  N     0.47222   0.25163   0.94915   0.03837  Uani   1.00
C5343  C     0.30699   0.49380   0.91965   0.04437  Uani   1.00
H5344  H     0.31220   0.48865   0.90455   0.05300  Uiso   1.00
C5345  C     0.44822   0.25253   0.95608   0.05277  Uani   1.00
H5346  H     0.44300   0.25465   0.97178   0.06300  Uiso   1.00
C5347  C     0.39057   0.25565   0.95723   0.06813  Uani   1.00
H5348  H     0.39933   0.25990   0.97110   0.08200  Uiso   1.00
C5349  C     0.36472   0.25528   0.95730   0.07560  Uani   1.00
H5350  H     0.35602   0.25875   0.97138   0.09100  Uiso   1.00
N5351  N     0.46686   0.25400   0.80127   0.03357  Uani   1.00
N5352  N     0.27778   0.49837   0.82415   0.03837  Uani   1.00
C5353  C     0.44301   0.25620   0.79465   0.04437  Uani   1.00
H5354  H     0.43780   0.26135   0.77955   0.05300  Uiso   1.00
C5355  C     0.30177   0.49747   0.83108   0.05277  Uani   1.00
H5356  H     0.30700   0.49535   0.84678   0.06300  Uiso   1.00
C5357  C     0.35943   0.49435   0.83223   0.06813  Uani   1.00
H5358  H     0.35068   0.49010   0.84610   0.08200  Uiso   1.00
C5359  C     0.38528   0.49472   0.83230   0.07560  Uani   1.00
H5360  H     0.39398   0.49125   0.84638   0.09100  Uiso   1.00
N5361  N     0.49600   0.46686   0.86377   0.03357  Uani   1.00
N5362  N     0.25163   0.27779   0.88665   0.03837  Uani   1.00
C5363  C     0.49380   0.44301   0.85715   0.04437  Uani   1.00
H5364  H     0.48865   0.43780   0.84205   0.05300  Uiso   1.00
C5365  C     0.25253   0.30178   0.89358   0.05277  Uani   1.00
H5366  H     0.25465   0.30700   0.90928   0.06300  Uiso   1.00
C5367  C     0.25565   0.35943   0.89473   0.06813  Uani   1.00
H5368  H     0.25990   0.35068   0.90860   0.08200  Uiso   1.00
C5369  C     0.25528   0.38528   0.89480   0.07560  Uani   1.00
H5370  H     0.25875   0.39398   0.90888   0.09100  Uiso   1.00
N5371  N     0.25400   0.28314   0.98877   0.03357  Uani   1.00
N5372  N     0.49838   0.47221   0.76165   0.03837  Uani   1.00
C5373  C     0.25620   0.30699   0.98215   0.04437  Uani   1.00
H5374  H     0.26135   0.31220   0.96705   0.05300  Uiso   1.00
C5375  C     0.49748   0.44823   0.76858   0.05277  Uani   1.00
H5376  H     0.49535   0.44300   0.78428   0.06300  Uiso   1.00
C5377  C     0.49435   0.39058   0.76973   0.06813  Uani   1.00
H5378  H     0.49010   0.39933   0.78360   0.08200  Uiso   1.00
C5379  C     0.49473   0.36472   0.76980   0.07560  Uani   1.00
H5380  H     0.49125   0.35602   0.78388   0.09100  Uiso   1.00
Co5381 Co    0.49721   0.49721   0.84375   0.02543  Uani   1.00
Co5382 Co    0.25279   0.25279   0.96875   0.02543  Uani   1.00
Co5383 Co    0.25279   0.49721   0.90625   0.02543  Uani   1.00
Co5384 Co    0.49721   0.25279   0.78125   0.02543  Uani   1.00
C5385  C     0.31790   0.25000   0.81250   0.04747  Uani   1.00
C5386  C     0.42678   0.25000   0.81250   0.04137  Uani   1.00
C5387  C     0.39888   0.25000   0.81250   0.05083  Uani   1.00
C5388  C     0.34598   0.25000   0.81250   0.05433  Uani   1.00
C5389  C     0.43210   0.25000   0.93750   0.04747  Uani   1.00
C5390  C     0.32322   0.25000   0.93750   0.04137  Uani   1.00
C5391  C     0.35112   0.25000   0.93750   0.05083  Uani   1.00
C5392  C     0.40403   0.25000   0.93750   0.05433  Uani   1.00
C5393  C     0.25000   0.31790   0.87500   0.04747  Uani   1.00
C5394  C     0.25000   0.42678   0.87500   0.04137  Uani   1.00
C5395  C     0.25000   0.39888   0.87500   0.05083  Uani   1.00
C5396  C     0.25000   0.34598   0.87500   0.05433  Uani   1.00
C5397  C     0.25000   0.43210   0.75000   0.04747  Uani   1.00
C5398  C     0.25000   0.32322   0.75000   0.04137  Uani   1.00
C5399  C     0.25000   0.35112   0.75000   0.05083  Uani   1.00
C5400  C     0.25000   0.40402   0.75000   0.05433  Uani   1.00
N5401  N     0.71686   0.49600   0.82373   0.03357  Uani   1.00
N5402  N     0.52779   0.25163   0.80085   0.03837  Uani   1.00
C5403  C     0.69301   0.49380   0.83035   0.04437  Uani   1.00
H5404  H     0.68780   0.48865   0.84545   0.05300  Uiso   1.00
C5405  C     0.55178   0.25253   0.79393   0.05277  Uani   1.00
H5406  H     0.55700   0.25465   0.77823   0.06300  Uiso   1.00
C5407  C     0.60943   0.25565   0.79278   0.06813  Uani   1.00
H5408  H     0.60068   0.25990   0.77890   0.08200  Uiso   1.00
C5409  C     0.63528   0.25528   0.79270   0.07560  Uani   1.00
H5410  H     0.64398   0.25875   0.77863   0.09100  Uiso   1.00
N5411  N     0.53314   0.25400   0.94873   0.03357  Uani   1.00
N5412  N     0.72222   0.49837   0.92585   0.03837  Uani   1.00
C5413  C     0.55699   0.25620   0.95535   0.04437  Uani   1.00
H5414  H     0.56220   0.26135   0.97045   0.05300  Uiso   1.00
C5415  C     0.69823   0.49747   0.91893   0.05277  Uani   1.00
H5416  H     0.69300   0.49535   0.90323   0.06300  Uiso   1.00
C5417  C     0.64058   0.49435   0.91778   0.06813  Uani   1.00
H5418  H     0.64933   0.49010   0.90390   0.08200  Uiso   1.00
C5419  C     0.61473   0.49472   0.91770   0.07560  Uani   1.00
H5420  H     0.60603   0.49125   0.90363   0.09100  Uiso   1.00
N5421  N     0.50400   0.46686   0.88623   0.03357  Uani   1.00
N5422  N     0.74837   0.27779   0.86335   0.03837  Uani   1.00
C5423  C     0.50620   0.44301   0.89285   0.04437  Uani   1.00
H5424  H     0.51135   0.43780   0.90795   0.05300  Uiso   1.00
C5425  C     0.74748   0.30178   0.85643   0.05277  Uani   1.00
H5426  H     0.74535   0.30700   0.84073   0.06300  Uiso   1.00
C5427  C     0.74435   0.35943   0.85528   0.06813  Uani   1.00
H5428  H     0.74010   0.35068   0.84140   0.08200  Uiso   1.00
C5429  C     0.74473   0.38528   0.85520   0.07560  Uani   1.00
H5430  H     0.74125   0.39398   0.84113   0.09100  Uiso   1.00
N5431  N     0.74600   0.28314   0.76123   0.03357  Uani   1.00
N5432  N     0.50163   0.47221   0.98835   0.03837  Uani   1.00
C5433  C     0.74380   0.30699   0.76785   0.04437  Uani   1.00
H5434  H     0.73865   0.31220   0.78295   0.05300  Uiso   1.00
C5435  C     0.50253   0.44823   0.98143   0.05277  Uani   1.00
H5436  H     0.50465   0.44300   0.96573   0.06300  Uiso   1.00
C5437  C     0.50565   0.39058   0.98028   0.06813  Uani   1.00
H5438  H     0.50990   0.39933   0.96640   0.08200  Uiso   1.00
C5439  C     0.50528   0.36472   0.98020   0.07560  Uani   1.00
H5440  H     0.50875   0.35602   0.96613   0.09100  Uiso   1.00
N5441  N     0.53314   0.49600   0.92627   0.03357  Uani   1.00
N5442  N     0.72222   0.25163   0.94915   0.03837  Uani   1.00
C5443  C     0.55699   0.49380   0.91965   0.04437  Uani   1.00
H5444  H     0.56220   0.48865   0.90455   0.05300  Uiso   1.00
C5445  C     0.69823   0.25253   0.95608   0.05277  Uani   1.00
H5446  H     0.69300   0.25465   0.97178   0.06300  Uiso   1.00
C5447  C     0.64058   0.25565   0.95723   0.06813  Uani   1.00
H5448  H     0.64933   0.25990   0.97110   0.08200  Uiso   1.00
C5449  C     0.61473   0.25528   0.95730   0.07560  Uani   1.00
H5450  H     0.60603   0.25875   0.97138   0.09100  Uiso   1.00
N5451  N     0.71686   0.25400   0.80127   0.03357  Uani   1.00
N5452  N     0.52779   0.49837   0.82415   0.03837  Uani   1.00
C5453  C     0.69301   0.25620   0.79465   0.04437  Uani   1.00
H5454  H     0.68780   0.26135   0.77955   0.05300  Uiso   1.00
C5455  C     0.55178   0.49747   0.83108   0.05277  Uani   1.00
H5456  H     0.55700   0.49535   0.84678   0.06300  Uiso   1.00
C5457  C     0.60943   0.49435   0.83223   0.06813  Uani   1.00
H5458  H     0.60068   0.49010   0.84610   0.08200  Uiso   1.00
C5459  C     0.63528   0.49472   0.83230   0.07560  Uani   1.00
H5460  H     0.64398   0.49125   0.84638   0.09100  Uiso   1.00
N5461  N     0.74600   0.46686   0.86377   0.03357  Uani   1.00
N5462  N     0.50163   0.27779   0.88665   0.03837  Uani   1.00
C5463  C     0.74380   0.44301   0.85715   0.04437  Uani   1.00
H5464  H     0.73865   0.43780   0.84205   0.05300  Uiso   1.00
C5465  C     0.50253   0.30178   0.89358   0.05277  Uani   1.00
H5466  H     0.50465   0.30700   0.90928   0.06300  Uiso   1.00
C5467  C     0.50565   0.35943   0.89473   0.06813  Uani   1.00
H5468  H     0.50990   0.35068   0.90860   0.08200  Uiso   1.00
C5469  C     0.50528   0.38528   0.89480   0.07560  Uani   1.00
H5470  H     0.50875   0.39398   0.90888   0.09100  Uiso   1.00
N5471  N     0.50400   0.28314   0.98877   0.03357  Uani   1.00
N5472  N     0.74837   0.47221   0.76165   0.03837  Uani   1.00
C5473  C     0.50620   0.30699   0.98215   0.04437  Uani   1.00
H5474  H     0.51135   0.31220   0.96705   0.05300  Uiso   1.00
C5475  C     0.74748   0.44823   0.76858   0.05277  Uani   1.00
H5476  H     0.74535   0.44300   0.78428   0.06300  Uiso   1.00
C5477  C     0.74435   0.39058   0.76973   0.06813  Uani   1.00
H5478  H     0.74010   0.39933   0.78360   0.08200  Uiso   1.00
C5479  C     0.74473   0.36472   0.76980   0.07560  Uani   1.00
H5480  H     0.74125   0.35602   0.78388   0.09100  Uiso   1.00
Co5481 Co    0.74721   0.49721   0.84375   0.02543  Uani   1.00
Co5482 Co    0.50279   0.25279   0.96875   0.02543  Uani   1.00
Co5483 Co    0.50279   0.49721   0.90625   0.02543  Uani   1.00
Co5484 Co    0.74721   0.25279   0.78125   0.02543  Uani   1.00
C5485  C     0.56790   0.25000   0.81250   0.04747  Uani   1.00
C5486  C     0.67678   0.25000   0.81250   0.04137  Uani   1.00
C5487  C     0.64888   0.25000   0.81250   0.05083  Uani   1.00
C5488  C     0.59598   0.25000   0.81250   0.05433  Uani   1.00
C5489  C     0.68210   0.25000   0.93750   0.04747  Uani   1.00
C5490  C     0.57322   0.25000   0.93750   0.04137  Uani   1.00
C5491  C     0.60112   0.25000   0.93750   0.05083  Uani   1.00
C5492  C     0.65402   0.25000   0.93750   0.05433  Uani   1.00
C5493  C     0.50000   0.31790   0.87500   0.04747  Uani   1.00
C5494  C     0.50000   0.42678   0.87500   0.04137  Uani   1.00
C5495  C     0.50000   0.39888   0.87500   0.05083  Uani   1.00
C5496  C     0.50000   0.34598   0.87500   0.05433  Uani   1.00
C5497  C     0.50000   0.43210   0.75000   0.04747  Uani   1.00
C5498  C     0.50000   0.32322   0.75000   0.04137  Uani   1.00
C5499  C     0.50000   0.35112   0.75000   0.05083  Uani   1.00
C5500  C     0.50000   0.40402   0.75000   0.05433  Uani   1.00
N5501  N     0.96686   0.49600   0.82373   0.03357  Uani   1.00
N5502  N     0.77779   0.25163   0.80085   0.03837  Uani   1.00
C5503  C     0.94301   0.49380   0.83035   0.04437  Uani   1.00
H5504  H     0.93780   0.48865   0.84545   0.05300  Uiso   1.00
C5505  C     0.80178   0.25253   0.79393   0.05277  Uani   1.00
H5506  H     0.80700   0.25465   0.77823   0.06300  Uiso   1.00
C5507  C     0.85943   0.25565   0.79278   0.06813  Uani   1.00
H5508  H     0.85068   0.25990   0.77890   0.08200  Uiso   1.00
C5509  C     0.88528   0.25528   0.79270   0.07560  Uani   1.00
H5510  H     0.89398   0.25875   0.77863   0.09100  Uiso   1.00
N5511  N     0.78314   0.25400   0.94873   0.03357  Uani   1.00
N5512  N     0.97222   0.49837   0.92585   0.03837  Uani   1.00
C5513  C     0.80699   0.25620   0.95535   0.04437  Uani   1.00
H5514  H     0.81220   0.26135   0.97045   0.05300  Uiso   1.00
C5515  C     0.94823   0.49747   0.91893   0.05277  Uani   1.00
H5516  H     0.94300   0.49535   0.90323   0.06300  Uiso   1.00
C5517  C     0.89058   0.49435   0.91778   0.06813  Uani   1.00
H5518  H     0.89933   0.49010   0.90390   0.08200  Uiso   1.00
C5519  C     0.86472   0.49472   0.91770   0.07560  Uani   1.00
H5520  H     0.85602   0.49125   0.90363   0.09100  Uiso   1.00
N5521  N     0.75400   0.46686   0.88623   0.03357  Uani   1.00
N5522  N     0.99838   0.27779   0.86335   0.03837  Uani   1.00
C5523  C     0.75620   0.44301   0.89285   0.04437  Uani   1.00
H5524  H     0.76135   0.43780   0.90795   0.05300  Uiso   1.00
C5525  C     0.99748   0.30178   0.85643   0.05277  Uani   1.00
H5526  H     0.99535   0.30700   0.84073   0.06300  Uiso   1.00
C5527  C     0.99435   0.35943   0.85528   0.06813  Uani   1.00
H5528  H     0.99010   0.35068   0.84140   0.08200  Uiso   1.00
C5529  C     0.99473   0.38528   0.85520   0.07560  Uani   1.00
H5530  H     0.99125   0.39398   0.84113   0.09100  Uiso   1.00
N5531  N     0.99600   0.28314   0.76123   0.03357  Uani   1.00
N5532  N     0.75163   0.47221   0.98835   0.03837  Uani   1.00
C5533  C     0.99380   0.30699   0.76785   0.04437  Uani   1.00
H5534  H     0.98865   0.31220   0.78295   0.05300  Uiso   1.00
C5535  C     0.75253   0.44823   0.98143   0.05277  Uani   1.00
H5536  H     0.75465   0.44300   0.96573   0.06300  Uiso   1.00
C5537  C     0.75565   0.39058   0.98028   0.06813  Uani   1.00
H5538  H     0.75990   0.39933   0.96640   0.08200  Uiso   1.00
C5539  C     0.75528   0.36472   0.98020   0.07560  Uani   1.00
H5540  H     0.75875   0.35602   0.96613   0.09100  Uiso   1.00
N5541  N     0.78314   0.49600   0.92627   0.03357  Uani   1.00
N5542  N     0.97222   0.25163   0.94915   0.03837  Uani   1.00
C5543  C     0.80699   0.49380   0.91965   0.04437  Uani   1.00
H5544  H     0.81220   0.48865   0.90455   0.05300  Uiso   1.00
C5545  C     0.94823   0.25253   0.95608   0.05277  Uani   1.00
H5546  H     0.94300   0.25465   0.97178   0.06300  Uiso   1.00
C5547  C     0.89058   0.25565   0.95723   0.06813  Uani   1.00
H5548  H     0.89933   0.25990   0.97110   0.08200  Uiso   1.00
C5549  C     0.86472   0.25528   0.95730   0.07560  Uani   1.00
H5550  H     0.85602   0.25875   0.97138   0.09100  Uiso   1.00
N5551  N     0.96686   0.25400   0.80127   0.03357  Uani   1.00
N5552  N     0.77779   0.49837   0.82415   0.03837  Uani   1.00
C5553  C     0.94301   0.25620   0.79465   0.04437  Uani   1.00
H5554  H     0.93780   0.26135   0.77955   0.05300  Uiso   1.00
C5555  C     0.80178   0.49747   0.83108   0.05277  Uani   1.00
H5556  H     0.80700   0.49535   0.84678   0.06300  Uiso   1.00
C5557  C     0.85943   0.49435   0.83223   0.06813  Uani   1.00
H5558  H     0.85068   0.49010   0.84610   0.08200  Uiso   1.00
C5559  C     0.88528   0.49472   0.83230   0.07560  Uani   1.00
H5560  H     0.89398   0.49125   0.84638   0.09100  Uiso   1.00
N5561  N     0.99600   0.46686   0.86377   0.03357  Uani   1.00
N5562  N     0.75163   0.27779   0.88665   0.03837  Uani   1.00
C5563  C     0.99380   0.44301   0.85715   0.04437  Uani   1.00
H5564  H     0.98865   0.43780   0.84205   0.05300  Uiso   1.00
C5565  C     0.75253   0.30178   0.89358   0.05277  Uani   1.00
H5566  H     0.75465   0.30700   0.90928   0.06300  Uiso   1.00
C5567  C     0.75565   0.35943   0.89473   0.06813  Uani   1.00
H5568  H     0.75990   0.35068   0.90860   0.08200  Uiso   1.00
C5569  C     0.75528   0.38528   0.89480   0.07560  Uani   1.00
H5570  H     0.75875   0.39398   0.90888   0.09100  Uiso   1.00
N5571  N     0.75400   0.28314   0.98877   0.03357  Uani   1.00
N5572  N     0.99838   0.47221   0.76165   0.03837  Uani   1.00
C5573  C     0.75620   0.30699   0.98215   0.04437  Uani   1.00
H5574  H     0.76135   0.31220   0.96705   0.05300  Uiso   1.00
C5575  C     0.99748   0.44823   0.76858   0.05277  Uani   1.00
H5576  H     0.99535   0.44300   0.78428   0.06300  Uiso   1.00
C5577  C     0.99435   0.39058   0.76973   0.06813  Uani   1.00
H5578  H     0.99010   0.39933   0.78360   0.08200  Uiso   1.00
C5579  C     0.99473   0.36472   0.76980   0.07560  Uani   1.00
H5580  H     0.99125   0.35602   0.78388   0.09100  Uiso   1.00
Co5581 Co    0.99721   0.49721   0.84375   0.02543  Uani   1.00
Co5582 Co    0.75279   0.25279   0.96875   0.02543  Uani   1.00
Co5583 Co    0.75279   0.49721   0.90625   0.02543  Uani   1.00
Co5584 Co    0.99721   0.25279   0.78125   0.02543  Uani   1.00
C5585  C     0.81790   0.25000   0.81250   0.04747  Uani   1.00
C5586  C     0.92678   0.25000   0.81250   0.04137  Uani   1.00
C5587  C     0.89888   0.25000   0.81250   0.05083  Uani   1.00
C5588  C     0.84598   0.25000   0.81250   0.05433  Uani   1.00
C5589  C     0.93210   0.25000   0.93750   0.04747  Uani   1.00
C5590  C     0.82322   0.25000   0.93750   0.04137  Uani   1.00
C5591  C     0.85113   0.25000   0.93750   0.05083  Uani   1.00
C5592  C     0.90403   0.25000   0.93750   0.05433  Uani   1.00
C5593  C     0.75000   0.31790   0.87500   0.04747  Uani   1.00
C5594  C     0.75000   0.42678   0.87500   0.04137  Uani   1.00
C5595  C     0.75000   0.39888   0.87500   0.05083  Uani   1.00
C5596  C     0.75000   0.34598   0.87500   0.05433  Uani   1.00
C5597  C     0.75000   0.43210   0.75000   0.04747  Uani   1.00
C5598  C     0.75000   0.32322   0.75000   0.04137  Uani   1.00
C5599  C     0.75000   0.35112   0.75000   0.05083  Uani   1.00
C5600  C     0.75000   0.40402   0.75000   0.05433  Uani   1.00
N5601  N     0.21686   0.74600   0.82373   0.03357  Uani   1.00
N5602  N     0.02778   0.50163   0.80085   0.03837  Uani   1.00
C5603  C     0.19301   0.74380   0.83035   0.04437  Uani   1.00
H5604  H     0.18780   0.73865   0.84545   0.05300  Uiso   1.00
C5605  C     0.05177   0.50253   0.79393   0.05277  Uani   1.00
H5606  H     0.05700   0.50465   0.77823   0.06300  Uiso   1.00
C5607  C     0.10943   0.50565   0.79278   0.06813  Uani   1.00
H5608  H     0.10068   0.50990   0.77890   0.08200  Uiso   1.00
C5609  C     0.13528   0.50528   0.79270   0.07560  Uani   1.00
H5610  H     0.14398   0.50875   0.77863   0.09100  Uiso   1.00
N5611  N     0.03314   0.50400   0.94873   0.03357  Uani   1.00
N5612  N     0.22221   0.74837   0.92585   0.03837  Uani   1.00
C5613  C     0.05699   0.50620   0.95535   0.04437  Uani   1.00
H5614  H     0.06220   0.51135   0.97045   0.05300  Uiso   1.00
C5615  C     0.19823   0.74747   0.91893   0.05277  Uani   1.00
H5616  H     0.19300   0.74535   0.90323   0.06300  Uiso   1.00
C5617  C     0.14057   0.74435   0.91778   0.06813  Uani   1.00
H5618  H     0.14932   0.74010   0.90390   0.08200  Uiso   1.00
C5619  C     0.11472   0.74472   0.91770   0.07560  Uani   1.00
H5620  H     0.10602   0.74125   0.90363   0.09100  Uiso   1.00
N5621  N     0.00400   0.71686   0.88623   0.03357  Uani   1.00
N5622  N     0.24837   0.52779   0.86335   0.03837  Uani   1.00
C5623  C     0.00620   0.69301   0.89285   0.04437  Uani   1.00
H5624  H     0.01135   0.68780   0.90795   0.05300  Uiso   1.00
C5625  C     0.24748   0.55178   0.85643   0.05277  Uani   1.00
H5626  H     0.24535   0.55700   0.84073   0.06300  Uiso   1.00
C5627  C     0.24435   0.60943   0.85528   0.06813  Uani   1.00
H5628  H     0.24010   0.60068   0.84140   0.08200  Uiso   1.00
C5629  C     0.24473   0.63528   0.85520   0.07560  Uani   1.00
H5630  H     0.24125   0.64398   0.84113   0.09100  Uiso   1.00
N5631  N     0.24600   0.53314   0.76123   0.03357  Uani   1.00
N5632  N     0.00163   0.72221   0.98835   0.03837  Uani   1.00
C5633  C     0.24380   0.55699   0.76785   0.04437  Uani   1.00
H5634  H     0.23865   0.56220   0.78295   0.05300  Uiso   1.00
C5635  C     0.00253   0.69823   0.98143   0.05277  Uani   1.00
H5636  H     0.00465   0.69300   0.96573   0.06300  Uiso   1.00
C5637  C     0.00565   0.64058   0.98028   0.06813  Uani   1.00
H5638  H     0.00990   0.64933   0.96640   0.08200  Uiso   1.00
C5639  C     0.00528   0.61472   0.98020   0.07560  Uani   1.00
H5640  H     0.00875   0.60602   0.96613   0.09100  Uiso   1.00
N5641  N     0.03314   0.74600   0.92627   0.03357  Uani   1.00
N5642  N     0.22221   0.50163   0.94915   0.03837  Uani   1.00
C5643  C     0.05699   0.74380   0.91965   0.04437  Uani   1.00
H5644  H     0.06220   0.73865   0.90455   0.05300  Uiso   1.00
C5645  C     0.19823   0.50253   0.95608   0.05277  Uani   1.00
H5646  H     0.19300   0.50465   0.97178   0.06300  Uiso   1.00
C5647  C     0.14057   0.50565   0.95723   0.06813  Uani   1.00
H5648  H     0.14932   0.50990   0.97110   0.08200  Uiso   1.00
C5649  C     0.11472   0.50528   0.95730   0.07560  Uani   1.00
H5650  H     0.10602   0.50875   0.97138   0.09100  Uiso   1.00
N5651  N     0.21686   0.50400   0.80127   0.03357  Uani   1.00
N5652  N     0.02778   0.74837   0.82415   0.03837  Uani   1.00
C5653  C     0.19301   0.50620   0.79465   0.04437  Uani   1.00
H5654  H     0.18780   0.51135   0.77955   0.05300  Uiso   1.00
C5655  C     0.05177   0.74747   0.83108   0.05277  Uani   1.00
H5656  H     0.05700   0.74535   0.84678   0.06300  Uiso   1.00
C5657  C     0.10943   0.74435   0.83223   0.06813  Uani   1.00
H5658  H     0.10068   0.74010   0.84610   0.08200  Uiso   1.00
C5659  C     0.13528   0.74472   0.83230   0.07560  Uani   1.00
H5660  H     0.14398   0.74125   0.84638   0.09100  Uiso   1.00
N5661  N     0.24600   0.71686   0.86377   0.03357  Uani   1.00
N5662  N     0.00163   0.52779   0.88665   0.03837  Uani   1.00
C5663  C     0.24380   0.69301   0.85715   0.04437  Uani   1.00
H5664  H     0.23865   0.68780   0.84205   0.05300  Uiso   1.00
C5665  C     0.00253   0.55178   0.89358   0.05277  Uani   1.00
H5666  H     0.00465   0.55700   0.90928   0.06300  Uiso   1.00
C5667  C     0.00565   0.60943   0.89473   0.06813  Uani   1.00
H5668  H     0.00990   0.60068   0.90860   0.08200  Uiso   1.00
C5669  C     0.00528   0.63528   0.89480   0.07560  Uani   1.00
H5670  H     0.00875   0.64398   0.90888   0.09100  Uiso   1.00
N5671  N     0.00400   0.53314   0.98877   0.03357  Uani   1.00
N5672  N     0.24837   0.72221   0.76165   0.03837  Uani   1.00
C5673  C     0.00620   0.55699   0.98215   0.04437  Uani   1.00
H5674  H     0.01135   0.56220   0.96705   0.05300  Uiso   1.00
C5675  C     0.24748   0.69823   0.76858   0.05277  Uani   1.00
H5676  H     0.24535   0.69300   0.78428   0.06300  Uiso   1.00
C5677  C     0.24435   0.64058   0.76973   0.06813  Uani   1.00
H5678  H     0.24010   0.64933   0.78360   0.08200  Uiso   1.00
C5679  C     0.24473   0.61472   0.76980   0.07560  Uani   1.00
H5680  H     0.24125   0.60602   0.78388   0.09100  Uiso   1.00
Co5681 Co    0.24721   0.74721   0.84375   0.02543  Uani   1.00
Co5682 Co    0.00279   0.50279   0.96875   0.02543  Uani   1.00
Co5683 Co    0.00279   0.74721   0.90625   0.02543  Uani   1.00
Co5684 Co    0.24721   0.50279   0.78125   0.02543  Uani   1.00
C5685  C     0.06790   0.50000   0.81250   0.04747  Uani   1.00
C5686  C     0.17678   0.50000   0.81250   0.04137  Uani   1.00
C5687  C     0.14888   0.50000   0.81250   0.05083  Uani   1.00
C5688  C     0.09598   0.50000   0.81250   0.05433  Uani   1.00
C5689  C     0.18210   0.50000   0.93750   0.04747  Uani   1.00
C5690  C     0.07322   0.50000   0.93750   0.04137  Uani   1.00
C5691  C     0.10112   0.50000   0.93750   0.05083  Uani   1.00
C5692  C     0.15402   0.50000   0.93750   0.05433  Uani   1.00
C5693  C     0.00000   0.56790   0.87500   0.04747  Uani   1.00
C5694  C     0.00000   0.67678   0.87500   0.04137  Uani   1.00
C5695  C     0.00000   0.64888   0.87500   0.05083  Uani   1.00
C5696  C     0.00000   0.59598   0.87500   0.05433  Uani   1.00
C5697  C     0.00000   0.68210   0.75000   0.04747  Uani   1.00
C5698  C     0.00000   0.57322   0.75000   0.04137  Uani   1.00
C5699  C     0.00000   0.60112   0.75000   0.05083  Uani   1.00
C5700  C     0.00000   0.65402   0.75000   0.05433  Uani   1.00
N5701  N     0.46686   0.74600   0.82373   0.03357  Uani   1.00
N5702  N     0.27778   0.50163   0.80085   0.03837  Uani   1.00
C5703  C     0.44301   0.74380   0.83035   0.04437  Uani   1.00
H5704  H     0.43780   0.73865   0.84545   0.05300  Uiso   1.00
C5705  C     0.30177   0.50253   0.79393   0.05277  Uani   1.00
H5706  H     0.30700   0.50465   0.77823   0.06300  Uiso   1.00
C5707  C     0.35943   0.50565   0.79278   0.06813  Uani   1.00
H5708  H     0.35068   0.50990   0.77890   0.08200  Uiso   1.00
C5709  C     0.38528   0.50528   0.79270   0.07560  Uani   1.00
H5710  H     0.39398   0.50875   0.77863   0.09100  Uiso   1.00
N5711  N     0.28314   0.50400   0.94873   0.03357  Uani   1.00
N5712  N     0.47222   0.74837   0.92585   0.03837  Uani   1.00
C5713  C     0.30699   0.50620   0.95535   0.04437  Uani   1.00
H5714  H     0.31220   0.51135   0.97045   0.05300  Uiso   1.00
C5715  C     0.44822   0.74747   0.91893   0.05277  Uani   1.00
H5716  H     0.44300   0.74535   0.90323   0.06300  Uiso   1.00
C5717  C     0.39057   0.74435   0.91778   0.06813  Uani   1.00
H5718  H     0.39933   0.74010   0.90390   0.08200  Uiso   1.00
C5719  C     0.36472   0.74472   0.91770   0.07560  Uani   1.00
H5720  H     0.35602   0.74125   0.90363   0.09100  Uiso   1.00
N5721  N     0.25400   0.71686   0.88623   0.03357  Uani   1.00
N5722  N     0.49838   0.52779   0.86335   0.03837  Uani   1.00
C5723  C     0.25620   0.69301   0.89285   0.04437  Uani   1.00
H5724  H     0.26135   0.68780   0.90795   0.05300  Uiso   1.00
C5725  C     0.49748   0.55178   0.85643   0.05277  Uani   1.00
H5726  H     0.49535   0.55700   0.84073   0.06300  Uiso   1.00
C5727  C     0.49435   0.60943   0.85528   0.06813  Uani   1.00
H5728  H     0.49010   0.60068   0.84140   0.08200  Uiso   1.00
C5729  C     0.49473   0.63528   0.85520   0.07560  Uani   1.00
H5730  H     0.49125   0.64398   0.84113   0.09100  Uiso   1.00
N5731  N     0.49600   0.53314   0.76123   0.03357  Uani   1.00
N5732  N     0.25163   0.72221   0.98835   0.03837  Uani   1.00
C5733  C     0.49380   0.55699   0.76785   0.04437  Uani   1.00
H5734  H     0.48865   0.56220   0.78295   0.05300  Uiso   1.00
C5735  C     0.25253   0.69823   0.98143   0.05277  Uani   1.00
H5736  H     0.25465   0.69300   0.96573   0.06300  Uiso   1.00
C5737  C     0.25565   0.64058   0.98028   0.06813  Uani   1.00
H5738  H     0.25990   0.64933   0.96640   0.08200  Uiso   1.00
C5739  C     0.25528   0.61472   0.98020   0.07560  Uani   1.00
H5740  H     0.25875   0.60602   0.96613   0.09100  Uiso   1.00
N5741  N     0.28314   0.74600   0.92627   0.03357  Uani   1.00
N5742  N     0.47222   0.50163   0.94915   0.03837  Uani   1.00
C5743  C     0.30699   0.74380   0.91965   0.04437  Uani   1.00
H5744  H     0.31220   0.73865   0.90455   0.05300  Uiso   1.00
C5745  C     0.44822   0.50253   0.95608   0.05277  Uani   1.00
H5746  H     0.44300   0.50465   0.97178   0.06300  Uiso   1.00
C5747  C     0.39057   0.50565   0.95723   0.06813  Uani   1.00
H5748  H     0.39933   0.50990   0.97110   0.08200  Uiso   1.00
C5749  C     0.36472   0.50528   0.95730   0.07560  Uani   1.00
H5750  H     0.35602   0.50875   0.97138   0.09100  Uiso   1.00
N5751  N     0.46686   0.50400   0.80127   0.03357  Uani   1.00
N5752  N     0.27778   0.74837   0.82415   0.03837  Uani   1.00
C5753  C     0.44301   0.50620   0.79465   0.04437  Uani   1.00
H5754  H     0.43780   0.51135   0.77955   0.05300  Uiso   1.00
C5755  C     0.30177   0.74747   0.83108   0.05277  Uani   1.00
H5756  H     0.30700   0.74535   0.84678   0.06300  Uiso   1.00
C5757  C     0.35943   0.74435   0.83223   0.06813  Uani   1.00
H5758  H     0.35068   0.74010   0.84610   0.08200  Uiso   1.00
C5759  C     0.38528   0.74472   0.83230   0.07560  Uani   1.00
H5760  H     0.39398   0.74125   0.84638   0.09100  Uiso   1.00
N5761  N     0.49600   0.71686   0.86377   0.03357  Uani   1.00
N5762  N     0.25163   0.52779   0.88665   0.03837  Uani   1.00
C5763  C     0.49380   0.69301   0.85715   0.04437  Uani   1.00
H5764  H     0.48865   0.68780   0.84205   0.05300  Uiso   1.00
C5765  C     0.25253   0.55178   0.89358   0.05277  Uani   1.00
H5766  H     0.25465   0.55700   0.90928   0.06300  Uiso   1.00
C5767  C     0.25565   0.60943   0.89473   0.06813  Uani   1.00
H5768  H     0.25990   0.60068   0.90860   0.08200  Uiso   1.00
C5769  C     0.25528   0.63528   0.89480   0.07560  Uani   1.00
H5770  H     0.25875   0.64398   0.90888   0.09100  Uiso   1.00
N5771  N     0.25400   0.53314   0.98877   0.03357  Uani   1.00
N5772  N     0.49838   0.72221   0.76165   0.03837  Uani   1.00
C5773  C     0.25620   0.55699   0.98215   0.04437  Uani   1.00
H5774  H     0.26135   0.56220   0.96705   0.05300  Uiso   1.00
C5775  C     0.49748   0.69823   0.76858   0.05277  Uani   1.00
H5776  H     0.49535   0.69300   0.78428   0.06300  Uiso   1.00
C5777  C     0.49435   0.64058   0.76973   0.06813  Uani   1.00
H5778  H     0.49010   0.64933   0.78360   0.08200  Uiso   1.00
C5779  C     0.49473   0.61472   0.76980   0.07560  Uani   1.00
H5780  H     0.49125   0.60602   0.78388   0.09100  Uiso   1.00
Co5781 Co    0.49721   0.74721   0.84375   0.02543  Uani   1.00
Co5782 Co    0.25279   0.50279   0.96875   0.02543  Uani   1.00
Co5783 Co    0.25279   0.74721   0.90625   0.02543  Uani   1.00
Co5784 Co    0.49721   0.50279   0.78125   0.02543  Uani   1.00
C5785  C     0.31790   0.50000   0.81250   0.04747  Uani   1.00
C5786  C     0.42678   0.50000   0.81250   0.04137  Uani   1.00
C5787  C     0.39888   0.50000   0.81250   0.05083  Uani   1.00
C5788  C     0.34598   0.50000   0.81250   0.05433  Uani   1.00
C5789  C     0.43210   0.50000   0.93750   0.04747  Uani   1.00
C5790  C     0.32322   0.50000   0.93750   0.04137  Uani   1.00
C5791  C     0.35112   0.50000   0.93750   0.05083  Uani   1.00
C5792  C     0.40403   0.50000   0.93750   0.05433  Uani   1.00
C5793  C     0.25000   0.56790   0.87500   0.04747  Uani   1.00
C5794  C     0.25000   0.67678   0.87500   0.04137  Uani   1.00
C5795  C     0.25000   0.64888   0.87500   0.05083  Uani   1.00
C5796  C     0.25000   0.59598   0.87500   0.05433  Uani   1.00
C5797  C     0.25000   0.68210   0.75000   0.04747  Uani   1.00
C5798  C     0.25000   0.57322   0.75000   0.04137  Uani   1.00
C5799  C     0.25000   0.60112   0.75000   0.05083  Uani   1.00
C5800  C     0.25000   0.65402   0.75000   0.05433  Uani   1.00
N5801  N     0.71686   0.74600   0.82373   0.03357  Uani   1.00
N5802  N     0.52779   0.50163   0.80085   0.03837  Uani   1.00
C5803  C     0.69301   0.74380   0.83035   0.04437  Uani   1.00
H5804  H     0.68780   0.73865   0.84545   0.05300  Uiso   1.00
C5805  C     0.55178   0.50253   0.79393   0.05277  Uani   1.00
H5806  H     0.55700   0.50465   0.77823   0.06300  Uiso   1.00
C5807  C     0.60943   0.50565   0.79278   0.06813  Uani   1.00
H5808  H     0.60068   0.50990   0.77890   0.08200  Uiso   1.00
C5809  C     0.63528   0.50528   0.79270   0.07560  Uani   1.00
H5810  H     0.64398   0.50875   0.77863   0.09100  Uiso   1.00
N5811  N     0.53314   0.50400   0.94873   0.03357  Uani   1.00
N5812  N     0.72222   0.74837   0.92585   0.03837  Uani   1.00
C5813  C     0.55699   0.50620   0.95535   0.04437  Uani   1.00
H5814  H     0.56220   0.51135   0.97045   0.05300  Uiso   1.00
C5815  C     0.69823   0.74747   0.91893   0.05277  Uani   1.00
H5816  H     0.69300   0.74535   0.90323   0.06300  Uiso   1.00
C5817  C     0.64058   0.74435   0.91778   0.06813  Uani   1.00
H5818  H     0.64933   0.74010   0.90390   0.08200  Uiso   1.00
C5819  C     0.61473   0.74472   0.91770   0.07560  Uani   1.00
H5820  H     0.60603   0.74125   0.90363   0.09100  Uiso   1.00
N5821  N     0.50400   0.71686   0.88623   0.03357  Uani   1.00
N5822  N     0.74837   0.52779   0.86335   0.03837  Uani   1.00
C5823  C     0.50620   0.69301   0.89285   0.04437  Uani   1.00
H5824  H     0.51135   0.68780   0.90795   0.05300  Uiso   1.00
C5825  C     0.74748   0.55178   0.85643   0.05277  Uani   1.00
H5826  H     0.74535   0.55700   0.84073   0.06300  Uiso   1.00
C5827  C     0.74435   0.60943   0.85528   0.06813  Uani   1.00
H5828  H     0.74010   0.60068   0.84140   0.08200  Uiso   1.00
C5829  C     0.74473   0.63528   0.85520   0.07560  Uani   1.00
H5830  H     0.74125   0.64398   0.84113   0.09100  Uiso   1.00
N5831  N     0.74600   0.53314   0.76123   0.03357  Uani   1.00
N5832  N     0.50163   0.72221   0.98835   0.03837  Uani   1.00
C5833  C     0.74380   0.55699   0.76785   0.04437  Uani   1.00
H5834  H     0.73865   0.56220   0.78295   0.05300  Uiso   1.00
C5835  C     0.50253   0.69823   0.98143   0.05277  Uani   1.00
H5836  H     0.50465   0.69300   0.96573   0.06300  Uiso   1.00
C5837  C     0.50565   0.64058   0.98028   0.06813  Uani   1.00
H5838  H     0.50990   0.64933   0.96640   0.08200  Uiso   1.00
C5839  C     0.50528   0.61472   0.98020   0.07560  Uani   1.00
H5840  H     0.50875   0.60602   0.96613   0.09100  Uiso   1.00
N5841  N     0.53314   0.74600   0.92627   0.03357  Uani   1.00
N5842  N     0.72222   0.50163   0.94915   0.03837  Uani   1.00
C5843  C     0.55699   0.74380   0.91965   0.04437  Uani   1.00
H5844  H     0.56220   0.73865   0.90455   0.05300  Uiso   1.00
C5845  C     0.69823   0.50253   0.95608   0.05277  Uani   1.00
H5846  H     0.69300   0.50465   0.97178   0.06300  Uiso   1.00
C5847  C     0.64058   0.50565   0.95723   0.06813  Uani   1.00
H5848  H     0.64933   0.50990   0.97110   0.08200  Uiso   1.00
C5849  C     0.61473   0.50528   0.95730   0.07560  Uani   1.00
H5850  H     0.60603   0.50875   0.97138   0.09100  Uiso   1.00
N5851  N     0.71686   0.50400   0.80127   0.03357  Uani   1.00
N5852  N     0.52779   0.74837   0.82415   0.03837  Uani   1.00
C5853  C     0.69301   0.50620   0.79465   0.04437  Uani   1.00
H5854  H     0.68780   0.51135   0.77955   0.05300  Uiso   1.00
C5855  C     0.55178   0.74747   0.83108   0.05277  Uani   1.00
H5856  H     0.55700   0.74535   0.84678   0.06300  Uiso   1.00
C5857  C     0.60943   0.74435   0.83223   0.06813  Uani   1.00
H5858  H     0.60068   0.74010   0.84610   0.08200  Uiso   1.00
C5859  C     0.63528   0.74472   0.83230   0.07560  Uani   1.00
H5860  H     0.64398   0.74125   0.84638   0.09100  Uiso   1.00
N5861  N     0.74600   0.71686   0.86377   0.03357  Uani   1.00
N5862  N     0.50163   0.52779   0.88665   0.03837  Uani   1.00
C5863  C     0.74380   0.69301   0.85715   0.04437  Uani   1.00
H5864  H     0.73865   0.68780   0.84205   0.05300  Uiso   1.00
C5865  C     0.50253   0.55178   0.89358   0.05277  Uani   1.00
H5866  H     0.50465   0.55700   0.90928   0.06300  Uiso   1.00
C5867  C     0.50565   0.60943   0.89473   0.06813  Uani   1.00
H5868  H     0.50990   0.60068   0.90860   0.08200  Uiso   1.00
C5869  C     0.50528   0.63528   0.89480   0.07560  Uani   1.00
H5870  H     0.50875   0.64398   0.90888   0.09100  Uiso   1.00
N5871  N     0.50400   0.53314   0.98877   0.03357  Uani   1.00
N5872  N     0.74837   0.72221   0.76165   0.03837  Uani   1.00
C5873  C     0.50620   0.55699   0.98215   0.04437  Uani   1.00
H5874  H     0.51135   0.56220   0.96705   0.05300  Uiso   1.00
C5875  C     0.74748   0.69823   0.76858   0.05277  Uani   1.00
H5876  H     0.74535   0.69300   0.78428   0.06300  Uiso   1.00
C5877  C     0.74435   0.64058   0.76973   0.06813  Uani   1.00
H5878  H     0.74010   0.64933   0.78360   0.08200  Uiso   1.00
C5879  C     0.74473   0.61472   0.76980   0.07560  Uani   1.00
H5880  H     0.74125   0.60602   0.78388   0.09100  Uiso   1.00
Co5881 Co    0.74721   0.74721   0.84375   0.02543  Uani   1.00
Co5882 Co    0.50279   0.50279   0.96875   0.02543  Uani   1.00
Co5883 Co    0.50279   0.74721   0.90625   0.02543  Uani   1.00
Co5884 Co    0.74721   0.50279   0.78125   0.02543  Uani   1.00
C5885  C     0.56790   0.50000   0.81250   0.04747  Uani   1.00
C5886  C     0.67678   0.50000   0.81250   0.04137  Uani   1.00
C5887  C     0.64888   0.50000   0.81250   0.05083  Uani   1.00
C5888  C     0.59598   0.50000   0.81250   0.05433  Uani   1.00
C5889  C     0.68210   0.50000   0.93750   0.04747  Uani   1.00
C5890  C     0.57322   0.50000   0.93750   0.04137  Uani   1.00
C5891  C     0.60112   0.50000   0.93750   0.05083  Uani   1.00
C5892  C     0.65402   0.50000   0.93750   0.05433  Uani   1.00
C5893  C     0.50000   0.56790   0.87500   0.04747  Uani   1.00
C5894  C     0.50000   0.67678   0.87500   0.04137  Uani   1.00
C5895  C     0.50000   0.64888   0.87500   0.05083  Uani   1.00
C5896  C     0.50000   0.59598   0.87500   0.05433  Uani   1.00
C5897  C     0.50000   0.68210   0.75000   0.04747  Uani   1.00
C5898  C     0.50000   0.57322   0.75000   0.04137  Uani   1.00
C5899  C     0.50000   0.60112   0.75000   0.05083  Uani   1.00
C5900  C     0.50000   0.65402   0.75000   0.05433  Uani   1.00
N5901  N     0.96686   0.74600   0.82373   0.03357  Uani   1.00
N5902  N     0.77779   0.50163   0.80085   0.03837  Uani   1.00
C5903  C     0.94301   0.74380   0.83035   0.04437  Uani   1.00
H5904  H     0.93780   0.73865   0.84545   0.05300  Uiso   1.00
C5905  C     0.80178   0.50253   0.79393   0.05277  Uani   1.00
H5906  H     0.80700   0.50465   0.77823   0.06300  Uiso   1.00
C5907  C     0.85943   0.50565   0.79278   0.06813  Uani   1.00
H5908  H     0.85068   0.50990   0.77890   0.08200  Uiso   1.00
C5909  C     0.88528   0.50528   0.79270   0.07560  Uani   1.00
H5910  H     0.89398   0.50875   0.77863   0.09100  Uiso   1.00
N5911  N     0.78314   0.50400   0.94873   0.03357  Uani   1.00
N5912  N     0.97222   0.74837   0.92585   0.03837  Uani   1.00
C5913  C     0.80699   0.50620   0.95535   0.04437  Uani   1.00
H5914  H     0.81220   0.51135   0.97045   0.05300  Uiso   1.00
C5915  C     0.94823   0.74747   0.91893   0.05277  Uani   1.00
H5916  H     0.94300   0.74535   0.90323   0.06300  Uiso   1.00
C5917  C     0.89058   0.74435   0.91778   0.06813  Uani   1.00
H5918  H     0.89933   0.74010   0.90390   0.08200  Uiso   1.00
C5919  C     0.86472   0.74472   0.91770   0.07560  Uani   1.00
H5920  H     0.85602   0.74125   0.90363   0.09100  Uiso   1.00
N5921  N     0.75400   0.71686   0.88623   0.03357  Uani   1.00
N5922  N     0.99838   0.52779   0.86335   0.03837  Uani   1.00
C5923  C     0.75620   0.69301   0.89285   0.04437  Uani   1.00
H5924  H     0.76135   0.68780   0.90795   0.05300  Uiso   1.00
C5925  C     0.99748   0.55178   0.85643   0.05277  Uani   1.00
H5926  H     0.99535   0.55700   0.84073   0.06300  Uiso   1.00
C5927  C     0.99435   0.60943   0.85528   0.06813  Uani   1.00
H5928  H     0.99010   0.60068   0.84140   0.08200  Uiso   1.00
C5929  C     0.99473   0.63528   0.85520   0.07560  Uani   1.00
H5930  H     0.99125   0.64398   0.84113   0.09100  Uiso   1.00
N5931  N     0.99600   0.53314   0.76123   0.03357  Uani   1.00
N5932  N     0.75163   0.72221   0.98835   0.03837  Uani   1.00
C5933  C     0.99380   0.55699   0.76785   0.04437  Uani   1.00
H5934  H     0.98865   0.56220   0.78295   0.05300  Uiso   1.00
C5935  C     0.75253   0.69823   0.98143   0.05277  Uani   1.00
H5936  H     0.75465   0.69300   0.96573   0.06300  Uiso   1.00
C5937  C     0.75565   0.64058   0.98028   0.06813  Uani   1.00
H5938  H     0.75990   0.64933   0.96640   0.08200  Uiso   1.00
C5939  C     0.75528   0.61472   0.98020   0.07560  Uani   1.00
H5940  H     0.75875   0.60602   0.96613   0.09100  Uiso   1.00
N5941  N     0.78314   0.74600   0.92627   0.03357  Uani   1.00
N5942  N     0.97222   0.50163   0.94915   0.03837  Uani   1.00
C5943  C     0.80699   0.74380   0.91965   0.04437  Uani   1.00
H5944  H     0.81220   0.73865   0.90455   0.05300  Uiso   1.00
C5945  C     0.94823   0.50253   0.95608   0.05277  Uani   1.00
H5946  H     0.94300   0.50465   0.97178   0.06300  Uiso   1.00
C5947  C     0.89058   0.50565   0.95723   0.06813  Uani   1.00
H5948  H     0.89933   0.50990   0.97110   0.08200  Uiso   1.00
C5949  C     0.86472   0.50528   0.95730   0.07560  Uani   1.00
H5950  H     0.85602   0.50875   0.97138   0.09100  Uiso   1.00
N5951  N     0.96686   0.50400   0.80127   0.03357  Uani   1.00
N5952  N     0.77779   0.74837   0.82415   0.03837  Uani   1.00
C5953  C     0.94301   0.50620   0.79465   0.04437  Uani   1.00
H5954  H     0.93780   0.51135   0.77955   0.05300  Uiso   1.00
C5955  C     0.80178   0.74747   0.83108   0.05277  Uani   1.00
H5956  H     0.80700   0.74535   0.84678   0.06300  Uiso   1.00
C5957  C     0.85943   0.74435   0.83223   0.06813  Uani   1.00
H5958  H     0.85068   0.74010   0.84610   0.08200  Uiso   1.00
C5959  C     0.88528   0.74472   0.83230   0.07560  Uani   1.00
H5960  H     0.89398   0.74125   0.84638   0.09100  Uiso   1.00
N5961  N     0.99600   0.71686   0.86377   0.03357  Uani   1.00
N5962  N     0.75163   0.52779   0.88665   0.03837  Uani   1.00
C5963  C     0.99380   0.69301   0.85715   0.04437  Uani   1.00
H5964  H     0.98865   0.68780   0.84205   0.05300  Uiso   1.00
C5965  C     0.75253   0.55178   0.89358   0.05277  Uani   1.00
H5966  H     0.75465   0.55700   0.90928   0.06300  Uiso   1.00
C5967  C     0.75565   0.60943   0.89473   0.06813  Uani   1.00
H5968  H     0.75990   0.60068   0.90860   0.08200  Uiso   1.00
C5969  C     0.75528   0.63528   0.89480   0.07560  Uani   1.00
H5970  H     0.75875   0.64398   0.90888   0.09100  Uiso   1.00
N5971  N     0.75400   0.53314   0.98877   0.03357  Uani   1.00
N5972  N     0.99838   0.72221   0.76165   0.03837  Uani   1.00
C5973  C     0.75620   0.55699   0.98215   0.04437  Uani   1.00
H5974  H     0.76135   0.56220   0.96705   0.05300  Uiso   1.00
C5975  C     0.99748   0.69823   0.76858   0.05277  Uani   1.00
H5976  H     0.99535   0.69300   0.78428   0.06300  Uiso   1.00
C5977  C     0.99435   0.64058   0.76973   0.06813  Uani   1.00
H5978  H     0.99010   0.64933   0.78360   0.08200  Uiso   1.00
C5979  C     0.99473   0.61472   0.76980   0.07560  Uani   1.00
H5980  H     0.99125   0.60602   0.78388   0.09100  Uiso   1.00
Co5981 Co    0.99721   0.74721   0.84375   0.02543  Uani   1.00
Co5982 Co    0.75279   0.50279   0.96875   0.02543  Uani   1.00
Co5983 Co    0.75279   0.74721   0.90625   0.02543  Uani   1.00
Co5984 Co    0.99721   0.50279   0.78125   0.02543  Uani   1.00
C5985  C     0.81790   0.50000   0.81250   0.04747  Uani   1.00
C5986  C     0.92678   0.50000   0.81250   0.04137  Uani   1.00
C5987  C     0.89888   0.50000   0.81250   0.05083  Uani   1.00
C5988  C     0.84598   0.50000   0.81250   0.05433  Uani   1.00
C5989  C     0.93210   0.50000   0.93750   0.04747  Uani   1.00
C5990  C     0.82322   0.50000   0.93750   0.04137  Uani   1.00
C5991  C     0.85113   0.50000   0.93750   0.05083  Uani   1.00
C5992  C     0.90403   0.50000   0.93750   0.05433  Uani   1.00
C5993  C     0.75000   0.56790   0.87500   0.04747  Uani   1.00
C5994  C     0.75000   0.67678   0.87500   0.04137  Uani   1.00
C5995  C     0.75000   0.64888   0.87500   0.05083  Uani   1.00
C5996  C     0.75000   0.59598   0.87500   0.05433  Uani   1.00
C5997  C     0.75000   0.68210   0.75000   0.04747  Uani   1.00
C5998  C     0.75000   0.57322   0.75000   0.04137  Uani   1.00
C5999  C     0.75000   0.60112   0.75000   0.05083  Uani   1.00
C6000  C     0.75000   0.65402   0.75000   0.05433  Uani   1.00
N6001  N     0.21686   0.99600   0.82373   0.03357  Uani   1.00
N6002  N     0.02778   0.75163   0.80085   0.03837  Uani   1.00
C6003  C     0.19301   0.99380   0.83035   0.04437  Uani   1.00
H6004  H     0.18780   0.98865   0.84545   0.05300  Uiso   1.00
C6005  C     0.05177   0.75253   0.79393   0.05277  Uani   1.00
H6006  H     0.05700   0.75465   0.77823   0.06300  Uiso   1.00
C6007  C     0.10943   0.75565   0.79278   0.06813  Uani   1.00
H6008  H     0.10068   0.75990   0.77890   0.08200  Uiso   1.00
C6009  C     0.13528   0.75528   0.79270   0.07560  Uani   1.00
H6010  H     0.14398   0.75875   0.77863   0.09100  Uiso   1.00
N6011  N     0.03314   0.75400   0.94873   0.03357  Uani   1.00
N6012  N     0.22221   0.99837   0.92585   0.03837  Uani   1.00
C6013  C     0.05699   0.75620   0.95535   0.04437  Uani   1.00
H6014  H     0.06220   0.76135   0.97045   0.05300  Uiso   1.00
C6015  C     0.19823   0.99747   0.91893   0.05277  Uani   1.00
H6016  H     0.19300   0.99535   0.90323   0.06300  Uiso   1.00
C6017  C     0.14057   0.99435   0.91778   0.06813  Uani   1.00
H6018  H     0.14932   0.99010   0.90390   0.08200  Uiso   1.00
C6019  C     0.11472   0.99473   0.91770   0.07560  Uani   1.00
H6020  H     0.10602   0.99125   0.90363   0.09100  Uiso   1.00
N6021  N     0.00400   0.96686   0.88623   0.03357  Uani   1.00
N6022  N     0.24837   0.77779   0.86335   0.03837  Uani   1.00
C6023  C     0.00620   0.94301   0.89285   0.04437  Uani   1.00
H6024  H     0.01135   0.93780   0.90795   0.05300  Uiso   1.00
C6025  C     0.24748   0.80178   0.85643   0.05277  Uani   1.00
H6026  H     0.24535   0.80700   0.84073   0.06300  Uiso   1.00
C6027  C     0.24435   0.85943   0.85528   0.06813  Uani   1.00
H6028  H     0.24010   0.85068   0.84140   0.08200  Uiso   1.00
C6029  C     0.24473   0.88528   0.85520   0.07560  Uani   1.00
H6030  H     0.24125   0.89398   0.84113   0.09100  Uiso   1.00
N6031  N     0.24600   0.78314   0.76123   0.03357  Uani   1.00
N6032  N     0.00163   0.97221   0.98835   0.03837  Uani   1.00
C6033  C     0.24380   0.80699   0.76785   0.04437  Uani   1.00
H6034  H     0.23865   0.81220   0.78295   0.05300  Uiso   1.00
C6035  C     0.00253   0.94823   0.98143   0.05277  Uani   1.00
H6036  H     0.00465   0.94300   0.96573   0.06300  Uiso   1.00
C6037  C     0.00565   0.89058   0.98028   0.06813  Uani   1.00
H6038  H     0.00990   0.89933   0.96640   0.08200  Uiso   1.00
C6039  C     0.00528   0.86472   0.98020   0.07560  Uani   1.00
H6040  H     0.00875   0.85602   0.96613   0.09100  Uiso   1.00
N6041  N     0.03314   0.99600   0.92627   0.03357  Uani   1.00
N6042  N     0.22221   0.75163   0.94915   0.03837  Uani   1.00
C6043  C     0.05699   0.99380   0.91965   0.04437  Uani   1.00
H6044  H     0.06220   0.98865   0.90455   0.05300  Uiso   1.00
C6045  C     0.19823   0.75253   0.95608   0.05277  Uani   1.00
H6046  H     0.19300   0.75465   0.97178   0.06300  Uiso   1.00
C6047  C     0.14057   0.75565   0.95723   0.06813  Uani   1.00
H6048  H     0.14932   0.75990   0.97110   0.08200  Uiso   1.00
C6049  C     0.11472   0.75528   0.95730   0.07560  Uani   1.00
H6050  H     0.10602   0.75875   0.97138   0.09100  Uiso   1.00
N6051  N     0.21686   0.75400   0.80127   0.03357  Uani   1.00
N6052  N     0.02778   0.99837   0.82415   0.03837  Uani   1.00
C6053  C     0.19301   0.75620   0.79465   0.04437  Uani   1.00
H6054  H     0.18780   0.76135   0.77955   0.05300  Uiso   1.00
C6055  C     0.05177   0.99747   0.83108   0.05277  Uani   1.00
H6056  H     0.05700   0.99535   0.84678   0.06300  Uiso   1.00
C6057  C     0.10943   0.99435   0.83223   0.06813  Uani   1.00
H6058  H     0.10068   0.99010   0.84610   0.08200  Uiso   1.00
C6059  C     0.13528   0.99473   0.83230   0.07560  Uani   1.00
H6060  H     0.14398   0.99125   0.84638   0.09100  Uiso   1.00
N6061  N     0.24600   0.96686   0.86377   0.03357  Uani   1.00
N6062  N     0.00163   0.77779   0.88665   0.03837  Uani   1.00
C6063  C     0.24380   0.94301   0.85715   0.04437  Uani   1.00
H6064  H     0.23865   0.93780   0.84205   0.05300  Uiso   1.00
C6065  C     0.00253   0.80178   0.89358   0.05277  Uani   1.00
H6066  H     0.00465   0.80700   0.90928   0.06300  Uiso   1.00
C6067  C     0.00565   0.85943   0.89473   0.06813  Uani   1.00
H6068  H     0.00990   0.85068   0.90860   0.08200  Uiso   1.00
C6069  C     0.00528   0.88528   0.89480   0.07560  Uani   1.00
H6070  H     0.00875   0.89398   0.90888   0.09100  Uiso   1.00
N6071  N     0.00400   0.78314   0.98877   0.03357  Uani   1.00
N6072  N     0.24837   0.97221   0.76165   0.03837  Uani   1.00
C6073  C     0.00620   0.80699   0.98215   0.04437  Uani   1.00
H6074  H     0.01135   0.81220   0.96705   0.05300  Uiso   1.00
C6075  C     0.24748   0.94823   0.76858   0.05277  Uani   1.00
H6076  H     0.24535   0.94300   0.78428   0.06300  Uiso   1.00
C6077  C     0.24435   0.89058   0.76973   0.06813  Uani   1.00
H6078  H     0.24010   0.89933   0.78360   0.08200  Uiso   1.00
C6079  C     0.24473   0.86472   0.76980   0.07560  Uani   1.00
H6080  H     0.24125   0.85602   0.78388   0.09100  Uiso   1.00
Co6081 Co    0.24721   0.99721   0.84375   0.02543  Uani   1.00
Co6082 Co    0.00279   0.75279   0.96875   0.02543  Uani   1.00
Co6083 Co    0.00279   0.99721   0.90625   0.02543  Uani   1.00
Co6084 Co    0.24721   0.75279   0.78125   0.02543  Uani   1.00
C6085  C     0.06790   0.75000   0.81250   0.04747  Uani   1.00
C6086  C     0.17678   0.75000   0.81250   0.04137  Uani   1.00
C6087  C     0.14888   0.75000   0.81250   0.05083  Uani   1.00
C6088  C     0.09598   0.75000   0.81250   0.05433  Uani   1.00
C6089  C     0.18210   0.75000   0.93750   0.04747  Uani   1.00
C6090  C     0.07322   0.75000   0.93750   0.04137  Uani   1.00
C6091  C     0.10112   0.75000   0.93750   0.05083  Uani   1.00
C6092  C     0.15402   0.75000   0.93750   0.05433  Uani   1.00
C6093  C     0.00000   0.81790   0.87500   0.04747  Uani   1.00
C6094  C     0.00000   0.92678   0.87500   0.04137  Uani   1.00
C6095  C     0.00000   0.89888   0.87500   0.05083  Uani   1.00
C6096  C     0.00000   0.84598   0.87500   0.05433  Uani   1.00
C6097  C     0.00000   0.93210   0.75000   0.04747  Uani   1.00
C6098  C     0.00000   0.82322   0.75000   0.04137  Uani   1.00
C6099  C     0.00000   0.85112   0.75000   0.05083  Uani   1.00
C6100  C     0.00000   0.90402   0.75000   0.05433  Uani   1.00
N6101  N     0.46686   0.99600   0.82373   0.03357  Uani   1.00
N6102  N     0.27778   0.75163   0.80085   0.03837  Uani   1.00
C6103  C     0.44301   0.99380   0.83035   0.04437  Uani   1.00
H6104  H     0.43780   0.98865   0.84545   0.05300  Uiso   1.00
C6105  C     0.30177   0.75253   0.79393   0.05277  Uani   1.00
H6106  H     0.30700   0.75465   0.77823   0.06300  Uiso   1.00
C6107  C     0.35943   0.75565   0.79278   0.06813  Uani   1.00
H6108  H     0.35068   0.75990   0.77890   0.08200  Uiso   1.00
C6109  C     0.38528   0.75528   0.79270   0.07560  Uani   1.00
H6110  H     0.39398   0.75875   0.77863   0.09100  Uiso   1.00
N6111  N     0.28314   0.75400   0.94873   0.03357  Uani   1.00
N6112  N     0.47222   0.99837   0.92585   0.03837  Uani   1.00
C6113  C     0.30699   0.75620   0.95535   0.04437  Uani   1.00
H6114  H     0.31220   0.76135   0.97045   0.05300  Uiso   1.00
C6115  C     0.44822   0.99747   0.91893   0.05277  Uani   1.00
H6116  H     0.44300   0.99535   0.90323   0.06300  Uiso   1.00
C6117  C     0.39057   0.99435   0.91778   0.06813  Uani   1.00
H6118  H     0.39933   0.99010   0.90390   0.08200  Uiso   1.00
C6119  C     0.36472   0.99473   0.91770   0.07560  Uani   1.00
H6120  H     0.35602   0.99125   0.90363   0.09100  Uiso   1.00
N6121  N     0.25400   0.96686   0.88623   0.03357  Uani   1.00
N6122  N     0.49838   0.77779   0.86335   0.03837  Uani   1.00
C6123  C     0.25620   0.94301   0.89285   0.04437  Uani   1.00
H6124  H     0.26135   0.93780   0.90795   0.05300  Uiso   1.00
C6125  C     0.49748   0.80178   0.85643   0.05277  Uani   1.00
H6126  H     0.49535   0.80700   0.84073   0.06300  Uiso   1.00
C6127  C     0.49435   0.85943   0.85528   0.06813  Uani   1.00
H6128  H     0.49010   0.85068   0.84140   0.08200  Uiso   1.00
C6129  C     0.49473   0.88528   0.85520   0.07560  Uani   1.00
H6130  H     0.49125   0.89398   0.84113   0.09100  Uiso   1.00
N6131  N     0.49600   0.78314   0.76123   0.03357  Uani   1.00
N6132  N     0.25163   0.97221   0.98835   0.03837  Uani   1.00
C6133  C     0.49380   0.80699   0.76785   0.04437  Uani   1.00
H6134  H     0.48865   0.81220   0.78295   0.05300  Uiso   1.00
C6135  C     0.25253   0.94823   0.98143   0.05277  Uani   1.00
H6136  H     0.25465   0.94300   0.96573   0.06300  Uiso   1.00
C6137  C     0.25565   0.89058   0.98028   0.06813  Uani   1.00
H6138  H     0.25990   0.89933   0.96640   0.08200  Uiso   1.00
C6139  C     0.25528   0.86472   0.98020   0.07560  Uani   1.00
H6140  H     0.25875   0.85602   0.96613   0.09100  Uiso   1.00
N6141  N     0.28314   0.99600   0.92627   0.03357  Uani   1.00
N6142  N     0.47222   0.75163   0.94915   0.03837  Uani   1.00
C6143  C     0.30699   0.99380   0.91965   0.04437  Uani   1.00
H6144  H     0.31220   0.98865   0.90455   0.05300  Uiso   1.00
C6145  C     0.44822   0.75253   0.95608   0.05277  Uani   1.00
H6146  H     0.44300   0.75465   0.97178   0.06300  Uiso   1.00
C6147  C     0.39057   0.75565   0.95723   0.06813  Uani   1.00
H6148  H     0.39933   0.75990   0.97110   0.08200  Uiso   1.00
C6149  C     0.36472   0.75528   0.95730   0.07560  Uani   1.00
H6150  H     0.35602   0.75875   0.97138   0.09100  Uiso   1.00
N6151  N     0.46686   0.75400   0.80127   0.03357  Uani   1.00
N6152  N     0.27778   0.99837   0.82415   0.03837  Uani   1.00
C6153  C     0.44301   0.75620   0.79465   0.04437  Uani   1.00
H6154  H     0.43780   0.76135   0.77955   0.05300  Uiso   1.00
C6155  C     0.30177   0.99747   0.83108   0.05277  Uani   1.00
H6156  H     0.30700   0.99535   0.84678   0.06300  Uiso   1.00
C6157  C     0.35943   0.99435   0.83223   0.06813  Uani   1.00
H6158  H     0.35068   0.99010   0.84610   0.08200  Uiso   1.00
C6159  C     0.38528   0.99473   0.83230   0.07560  Uani   1.00
H6160  H     0.39398   0.99125   0.84638   0.09100  Uiso   1.00
N6161  N     0.49600   0.96686   0.86377   0.03357  Uani   1.00
N6162  N     0.25163   0.77779   0.88665   0.03837  Uani   1.00
C6163  C     0.49380   0.94301   0.85715   0.04437  Uani   1.00
H6164  H     0.48865   0.93780   0.84205   0.05300  Uiso   1.00
C6165  C     0.25253   0.80178   0.89358   0.05277  Uani   1.00
H6166  H     0.25465   0.80700   0.90928   0.06300  Uiso   1.00
C6167  C     0.25565   0.85943   0.89473   0.06813  Uani   1.00
H6168  H     0.25990   0.85068   0.90860   0.08200  Uiso   1.00
C6169  C     0.25528   0.88528   0.89480   0.07560  Uani   1.00
H6170  H     0.25875   0.89398   0.90888   0.09100  Uiso   1.00
N6171  N     0.25400   0.78314   0.98877   0.03357  Uani   1.00
N6172  N     0.49838   0.97221   0.76165   0.03837  Uani   1.00
C6173  C     0.25620   0.80699   0.98215   0.04437  Uani   1.00
H6174  H     0.26135   0.81220   0.96705   0.05300  Uiso   1.00
C6175  C     0.49748   0.94823   0.76858   0.05277  Uani   1.00
H6176  H     0.49535   0.94300   0.78428   0.06300  Uiso   1.00
C6177  C     0.49435   0.89058   0.76973   0.06813  Uani   1.00
H6178  H     0.49010   0.89933   0.78360   0.08200  Uiso   1.00
C6179  C     0.49473   0.86472   0.76980   0.07560  Uani   1.00
H6180  H     0.49125   0.85602   0.78388   0.09100  Uiso   1.00
Co6181 Co    0.49721   0.99721   0.84375   0.02543  Uani   1.00
Co6182 Co    0.25279   0.75279   0.96875   0.02543  Uani   1.00
Co6183 Co    0.25279   0.99721   0.90625   0.02543  Uani   1.00
Co6184 Co    0.49721   0.75279   0.78125   0.02543  Uani   1.00
C6185  C     0.31790   0.75000   0.81250   0.04747  Uani   1.00
C6186  C     0.42678   0.75000   0.81250   0.04137  Uani   1.00
C6187  C     0.39888   0.75000   0.81250   0.05083  Uani   1.00
C6188  C     0.34598   0.75000   0.81250   0.05433  Uani   1.00
C6189  C     0.43210   0.75000   0.93750   0.04747  Uani   1.00
C6190  C     0.32322   0.75000   0.93750   0.04137  Uani   1.00
C6191  C     0.35112   0.75000   0.93750   0.05083  Uani   1.00
C6192  C     0.40403   0.75000   0.93750   0.05433  Uani   1.00
C6193  C     0.25000   0.81790   0.87500   0.04747  Uani   1.00
C6194  C     0.25000   0.92678   0.87500   0.04137  Uani   1.00
C6195  C     0.25000   0.89888   0.87500   0.05083  Uani   1.00
C6196  C     0.25000   0.84598   0.87500   0.05433  Uani   1.00
C6197  C     0.25000   0.93210   0.75000   0.04747  Uani   1.00
C6198  C     0.25000   0.82322   0.75000   0.04137  Uani   1.00
C6199  C     0.25000   0.85112   0.75000   0.05083  Uani   1.00
C6200  C     0.25000   0.90402   0.75000   0.05433  Uani   1.00
N6201  N     0.71686   0.99600   0.82373   0.03357  Uani   1.00
N6202  N     0.52779   0.75163   0.80085   0.03837  Uani   1.00
C6203  C     0.69301   0.99380   0.83035   0.04437  Uani   1.00
H6204  H     0.68780   0.98865   0.84545   0.05300  Uiso   1.00
C6205  C     0.55178   0.75253   0.79393   0.05277  Uani   1.00
H6206  H     0.55700   0.75465   0.77823   0.06300  Uiso   1.00
C6207  C     0.60943   0.75565   0.79278   0.06813  Uani   1.00
H6208  H     0.60068   0.75990   0.77890   0.08200  Uiso   1.00
C6209  C     0.63528   0.75528   0.79270   0.07560  Uani   1.00
H6210  H     0.64398   0.75875   0.77863   0.09100  Uiso   1.00
N6211  N     0.53314   0.75400   0.94873   0.03357  Uani   1.00
N6212  N     0.72222   0.99837   0.92585   0.03837  Uani   1.00
C6213  C     0.55699   0.75620   0.95535   0.04437  Uani   1.00
H6214  H     0.56220   0.76135   0.97045   0.05300  Uiso   1.00
C6215  C     0.69823   0.99747   0.91893   0.05277  Uani   1.00
H6216  H     0.69300   0.99535   0.90323   0.06300  Uiso   1.00
C6217  C     0.64058   0.99435   0.91778   0.06813  Uani   1.00
H6218  H     0.64933   0.99010   0.90390   0.08200  Uiso   1.00
C6219  C     0.61473   0.99473   0.91770   0.07560  Uani   1.00
H6220  H     0.60603   0.99125   0.90363   0.09100  Uiso   1.00
N6221  N     0.50400   0.96686   0.88623   0.03357  Uani   1.00
N6222  N     0.74837   0.77779   0.86335   0.03837  Uani   1.00
C6223  C     0.50620   0.94301   0.89285   0.04437  Uani   1.00
H6224  H     0.51135   0.93780   0.90795   0.05300  Uiso   1.00
C6225  C     0.74748   0.80178   0.85643   0.05277  Uani   1.00
H6226  H     0.74535   0.80700   0.84073   0.06300  Uiso   1.00
C6227  C     0.74435   0.85943   0.85528   0.06813  Uani   1.00
H6228  H     0.74010   0.85068   0.84140   0.08200  Uiso   1.00
C6229  C     0.74473   0.88528   0.85520   0.07560  Uani   1.00
H6230  H     0.74125   0.89398   0.84113   0.09100  Uiso   1.00
N6231  N     0.74600   0.78314   0.76123   0.03357  Uani   1.00
N6232  N     0.50163   0.97221   0.98835   0.03837  Uani   1.00
C6233  C     0.74380   0.80699   0.76785   0.04437  Uani   1.00
H6234  H     0.73865   0.81220   0.78295   0.05300  Uiso   1.00
C6235  C     0.50253   0.94823   0.98143   0.05277  Uani   1.00
H6236  H     0.50465   0.94300   0.96573   0.06300  Uiso   1.00
C6237  C     0.50565   0.89058   0.98028   0.06813  Uani   1.00
H6238  H     0.50990   0.89933   0.96640   0.08200  Uiso   1.00
C6239  C     0.50528   0.86472   0.98020   0.07560  Uani   1.00
H6240  H     0.50875   0.85602   0.96613   0.09100  Uiso   1.00
N6241  N     0.53314   0.99600   0.92627   0.03357  Uani   1.00
N6242  N     0.72222   0.75163   0.94915   0.03837  Uani   1.00
C6243  C     0.55699   0.99380   0.91965   0.04437  Uani   1.00
H6244  H     0.56220   0.98865   0.90455   0.05300  Uiso   1.00
C6245  C     0.69823   0.75253   0.95608   0.05277  Uani   1.00
H6246  H     0.69300   0.75465   0.97178   0.06300  Uiso   1.00
C6247  C     0.64058   0.75565   0.95723   0.06813  Uani   1.00
H6248  H     0.64933   0.75990   0.97110   0.08200  Uiso   1.00
C6249  C     0.61473   0.75528   0.95730   0.07560  Uani   1.00
H6250  H     0.60603   0.75875   0.97138   0.09100  Uiso   1.00
N6251  N     0.71686   0.75400   0.80127   0.03357  Uani   1.00
N6252  N     0.52779   0.99837   0.82415   0.03837  Uani   1.00
C6253  C     0.69301   0.75620   0.79465   0.04437  Uani   1.00
H6254  H     0.68780   0.76135   0.77955   0.05300  Uiso   1.00
C6255  C     0.55178   0.99747   0.83108   0.05277  Uani   1.00
H6256  H     0.55700   0.99535   0.84678   0.06300  Uiso   1.00
C6257  C     0.60943   0.99435   0.83223   0.06813  Uani   1.00
H6258  H     0.60068   0.99010   0.84610   0.08200  Uiso   1.00
C6259  C     0.63528   0.99473   0.83230   0.07560  Uani   1.00
H6260  H     0.64398   0.99125   0.84638   0.09100  Uiso   1.00
N6261  N     0.74600   0.96686   0.86377   0.03357  Uani   1.00
N6262  N     0.50163   0.77779   0.88665   0.03837  Uani   1.00
C6263  C     0.74380   0.94301   0.85715   0.04437  Uani   1.00
H6264  H     0.73865   0.93780   0.84205   0.05300  Uiso   1.00
C6265  C     0.50253   0.80178   0.89358   0.05277  Uani   1.00
H6266  H     0.50465   0.80700   0.90928   0.06300  Uiso   1.00
C6267  C     0.50565   0.85943   0.89473   0.06813  Uani   1.00
H6268  H     0.50990   0.85068   0.90860   0.08200  Uiso   1.00
C6269  C     0.50528   0.88528   0.89480   0.07560  Uani   1.00
H6270  H     0.50875   0.89398   0.90888   0.09100  Uiso   1.00
N6271  N     0.50400   0.78314   0.98877   0.03357  Uani   1.00
N6272  N     0.74837   0.97221   0.76165   0.03837  Uani   1.00
C6273  C     0.50620   0.80699   0.98215   0.04437  Uani   1.00
H6274  H     0.51135   0.81220   0.96705   0.05300  Uiso   1.00
C6275  C     0.74748   0.94823   0.76858   0.05277  Uani   1.00
H6276  H     0.74535   0.94300   0.78428   0.06300  Uiso   1.00
C6277  C     0.74435   0.89058   0.76973   0.06813  Uani   1.00
H6278  H     0.74010   0.89933   0.78360   0.08200  Uiso   1.00
C6279  C     0.74473   0.86472   0.76980   0.07560  Uani   1.00
H6280  H     0.74125   0.85602   0.78388   0.09100  Uiso   1.00
Co6281 Co    0.74721   0.99721   0.84375   0.02543  Uani   1.00
Co6282 Co    0.50279   0.75279   0.96875   0.02543  Uani   1.00
Co6283 Co    0.50279   0.99721   0.90625   0.02543  Uani   1.00
Co6284 Co    0.74721   0.75279   0.78125   0.02543  Uani   1.00
C6285  C     0.56790   0.75000   0.81250   0.04747  Uani   1.00
C6286  C     0.67678   0.75000   0.81250   0.04137  Uani   1.00
C6287  C     0.64888   0.75000   0.81250   0.05083  Uani   1.00
C6288  C     0.59598   0.75000   0.81250   0.05433  Uani   1.00
C6289  C     0.68210   0.75000   0.93750   0.04747  Uani   1.00
C6290  C     0.57322   0.75000   0.93750   0.04137  Uani   1.00
C6291  C     0.60112   0.75000   0.93750   0.05083  Uani   1.00
C6292  C     0.65402   0.75000   0.93750   0.05433  Uani   1.00
C6293  C     0.50000   0.81790   0.87500   0.04747  Uani   1.00
C6294  C     0.50000   0.92678   0.87500   0.04137  Uani   1.00
C6295  C     0.50000   0.89888   0.87500   0.05083  Uani   1.00
C6296  C     0.50000   0.84598   0.87500   0.05433  Uani   1.00
C6297  C     0.50000   0.93210   0.75000   0.04747  Uani   1.00
C6298  C     0.50000   0.82322   0.75000   0.04137  Uani   1.00
C6299  C     0.50000   0.85112   0.75000   0.05083  Uani   1.00
C6300  C     0.50000   0.90402   0.75000   0.05433  Uani   1.00
N6301  N     0.96686   0.99600   0.82373   0.03357  Uani   1.00
N6302  N     0.77779   0.75163   0.80085   0.03837  Uani   1.00
C6303  C     0.94301   0.99380   0.83035   0.04437  Uani   1.00
H6304  H     0.93780   0.98865   0.84545   0.05300  Uiso   1.00
C6305  C     0.80178   0.75253   0.79393   0.05277  Uani   1.00
H6306  H     0.80700   0.75465   0.77823   0.06300  Uiso   1.00
C6307  C     0.85943   0.75565   0.79278   0.06813  Uani   1.00
H6308  H     0.85068   0.75990   0.77890   0.08200  Uiso   1.00
C6309  C     0.88528   0.75528   0.79270   0.07560  Uani   1.00
H6310  H     0.89398   0.75875   0.77863   0.09100  Uiso   1.00
N6311  N     0.78314   0.75400   0.94873   0.03357  Uani   1.00
N6312  N     0.97222   0.99837   0.92585   0.03837  Uani   1.00
C6313  C     0.80699   0.75620   0.95535   0.04437  Uani   1.00
H6314  H     0.81220   0.76135   0.97045   0.05300  Uiso   1.00
C6315  C     0.94823   0.99747   0.91893   0.05277  Uani   1.00
H6316  H     0.94300   0.99535   0.90323   0.06300  Uiso   1.00
C6317  C     0.89058   0.99435   0.91778   0.06813  Uani   1.00
H6318  H     0.89933   0.99010   0.90390   0.08200  Uiso   1.00
C6319  C     0.86472   0.99473   0.91770   0.07560  Uani   1.00
H6320  H     0.85602   0.99125   0.90363   0.09100  Uiso   1.00
N6321  N     0.75400   0.96686   0.88623   0.03357  Uani   1.00
N6322  N     0.99838   0.77779   0.86335   0.03837  Uani   1.00
C6323  C     0.75620   0.94301   0.89285   0.04437  Uani   1.00
H6324  H     0.76135   0.93780   0.90795   0.05300  Uiso   1.00
C6325  C     0.99748   0.80178   0.85643   0.05277  Uani   1.00
H6326  H     0.99535   0.80700   0.84073   0.06300  Uiso   1.00
C6327  C     0.99435   0.85943   0.85528   0.06813  Uani   1.00
H6328  H     0.99010   0.85068   0.84140   0.08200  Uiso   1.00
C6329  C     0.99473   0.88528   0.85520   0.07560  Uani   1.00
H6330  H     0.99125   0.89398   0.84113   0.09100  Uiso   1.00
N6331  N     0.99600   0.78314   0.76123   0.03357  Uani   1.00
N6332  N     0.75163   0.97221   0.98835   0.03837  Uani   1.00
C6333  C     0.99380   0.80699   0.76785   0.04437  Uani   1.00
H6334  H     0.98865   0.81220   0.78295   0.05300  Uiso   1.00
C6335  C     0.75253   0.94823   0.98143   0.05277  Uani   1.00
H6336  H     0.75465   0.94300   0.96573   0.06300  Uiso   1.00
C6337  C     0.75565   0.89058   0.98028   0.06813  Uani   1.00
H6338  H     0.75990   0.89933   0.96640   0.08200  Uiso   1.00
C6339  C     0.75528   0.86472   0.98020   0.07560  Uani   1.00
H6340  H     0.75875   0.85602   0.96613   0.09100  Uiso   1.00
N6341  N     0.78314   0.99600   0.92627   0.03357  Uani   1.00
N6342  N     0.97222   0.75163   0.94915   0.03837  Uani   1.00
C6343  C     0.80699   0.99380   0.91965   0.04437  Uani   1.00
H6344  H     0.81220   0.98865   0.90455   0.05300  Uiso   1.00
C6345  C     0.94823   0.75253   0.95608   0.05277  Uani   1.00
H6346  H     0.94300   0.75465   0.97178   0.06300  Uiso   1.00
C6347  C     0.89058   0.75565   0.95723   0.06813  Uani   1.00
H6348  H     0.89933   0.75990   0.97110   0.08200  Uiso   1.00
C6349  C     0.86472   0.75528   0.95730   0.07560  Uani   1.00
H6350  H     0.85602   0.75875   0.97138   0.09100  Uiso   1.00
N6351  N     0.96686   0.75400   0.80127   0.03357  Uani   1.00
N6352  N     0.77779   0.99837   0.82415   0.03837  Uani   1.00
C6353  C     0.94301   0.75620   0.79465   0.04437  Uani   1.00
H6354  H     0.93780   0.76135   0.77955   0.05300  Uiso   1.00
C6355  C     0.80178   0.99747   0.83108   0.05277  Uani   1.00
H6356  H     0.80700   0.99535   0.84678   0.06300  Uiso   1.00
C6357  C     0.85943   0.99435   0.83223   0.06813  Uani   1.00
H6358  H     0.85068   0.99010   0.84610   0.08200  Uiso   1.00
C6359  C     0.88528   0.99473   0.83230   0.07560  Uani   1.00
H6360  H     0.89398   0.99125   0.84638   0.09100  Uiso   1.00
N6361  N     0.99600   0.96686   0.86377   0.03357  Uani   1.00
N6362  N     0.75163   0.77779   0.88665   0.03837  Uani   1.00
C6363  C     0.99380   0.94301   0.85715   0.04437  Uani   1.00
H6364  H     0.98865   0.93780   0.84205   0.05300  Uiso   1.00
C6365  C     0.75253   0.80178   0.89358   0.05277  Uani   1.00
H6366  H     0.75465   0.80700   0.90928   0.06300  Uiso   1.00
C6367  C     0.75565   0.85943   0.89473   0.06813  Uani   1.00
H6368  H     0.75990   0.85068   0.90860   0.08200  Uiso   1.00
C6369  C     0.75528   0.88528   0.89480   0.07560  Uani   1.00
H6370  H     0.75875   0.89398   0.90888   0.09100  Uiso   1.00
N6371  N     0.75400   0.78314   0.98877   0.03357  Uani   1.00
N6372  N     0.99838   0.97221   0.76165   0.03837  Uani   1.00
C6373  C     0.75620   0.80699   0.98215   0.04437  Uani   1.00
H6374  H     0.76135   0.81220   0.96705   0.05300  Uiso   1.00
C6375  C     0.99748   0.94823   0.76858   0.05277  Uani   1.00
H6376  H     0.99535   0.94300   0.78428   0.06300  Uiso   1.00
C6377  C     0.99435   0.89058   0.76973   0.06813  Uani   1.00
H6378  H     0.99010   0.89933   0.78360   0.08200  Uiso   1.00
C6379  C     0.99473   0.86472   0.76980   0.07560  Uani   1.00
H6380  H     0.99125   0.85602   0.78388   0.09100  Uiso   1.00
Co6381 Co    0.99721   0.99721   0.84375   0.02543  Uani   1.00
Co6382 Co    0.75279   0.75279   0.96875   0.02543  Uani   1.00
Co6383 Co    0.75279   0.99721   0.90625   0.02543  Uani   1.00
Co6384 Co    0.99721   0.75279   0.78125   0.02543  Uani   1.00
C6385  C     0.81790   0.75000   0.81250   0.04747  Uani   1.00
C6386  C     0.92678   0.75000   0.81250   0.04137  Uani   1.00
C6387  C     0.89888   0.75000   0.81250   0.05083  Uani   1.00
C6388  C     0.84598   0.75000   0.81250   0.05433  Uani   1.00
C6389  C     0.93210   0.75000   0.93750   0.04747  Uani   1.00
C6390  C     0.82322   0.75000   0.93750   0.04137  Uani   1.00
C6391  C     0.85113   0.75000   0.93750   0.05083  Uani   1.00
C6392  C     0.90403   0.75000   0.93750   0.05433  Uani   1.00
C6393  C     0.75000   0.81790   0.87500   0.04747  Uani   1.00
C6394  C     0.75000   0.92678   0.87500   0.04137  Uani   1.00
C6395  C     0.75000   0.89888   0.87500   0.05083  Uani   1.00
C6396  C     0.75000   0.84598   0.87500   0.05433  Uani   1.00
C6397  C     0.75000   0.93210   0.75000   0.04747  Uani   1.00
C6398  C     0.75000   0.82322   0.75000   0.04137  Uani   1.00
C6399  C     0.75000   0.85112   0.75000   0.05083  Uani   1.00
C6400  C     0.75000   0.90402   0.75000   0.05433  Uani   1.00
loop_
_atom_site_aniso_label
_atom_site_aniso_U_11
_atom_site_aniso_U_22
_atom_site_aniso_U_33
_atom_site_aniso_U_12
_atom_site_aniso_U_13
_atom_site_aniso_U_23
N1        0.02330   0.04710   0.03030  -0.00200  -0.00030   0.00130
N2        0.02450   0.05650   0.03410  -0.00140   0.00040   0.00230
C3        0.02400   0.07500   0.03410  -0.00840   0.00570   0.01140
C5        0.02660   0.09300   0.03870   0.00000   0.00480   0.00300
C7        0.02540   0.13000   0.04900   0.00200  -0.00310   0.02800
C9        0.02480   0.15200   0.05000   0.00000  -0.00010   0.01500
N11       0.02330   0.04710   0.03030  -0.00200   0.00030  -0.00130
N12       0.02450   0.05650   0.03410  -0.00140  -0.00040  -0.00230
C13       0.02400   0.07500   0.03410  -0.00840  -0.00570  -0.01140
C15       0.02660   0.09300   0.03870   0.00000  -0.00480  -0.00300
C17       0.02540   0.13000   0.04900   0.00200   0.00310  -0.02800
C19       0.02480   0.15200   0.05000   0.00000   0.00010  -0.01500
N21       0.04710   0.02330   0.03030   0.00200  -0.00130  -0.00030
N22       0.05650   0.02450   0.03410   0.00140  -0.00230   0.00040
C23       0.07500   0.02400   0.03410   0.00840  -0.01140   0.00570
C25       0.09300   0.02660   0.03870   0.00000  -0.00300   0.00480
C27       0.13000   0.02540   0.04900  -0.00200  -0.02800  -0.00310
C29       0.15200   0.02480   0.05000   0.00000  -0.01500  -0.00010
N31       0.04710   0.02330   0.03030   0.00200   0.00130   0.00030
N32       0.05650   0.02450   0.03410   0.00140   0.00230  -0.00040
C33       0.07500   0.02400   0.03410   0.00840   0.01140  -0.00570
C35       0.09300   0.02660   0.03870   0.00000   0.00300  -0.00480
C37       0.13000   0.02540   0.04900  -0.00200   0.02800   0.00310
C39       0.15200   0.02480   0.05000   0.00000   0.01500   0.00010
N41       0.02330   0.04710   0.03030   0.00200  -0.00030  -0.00130
N42       0.02450   0.05650   0.03410   0.00140   0.00040  -0.00230
C43       0.02400   0.07500   0.03410   0.00840   0.00570  -0.01140
C45       0.02660   0.09300   0.03870   0.00000   0.00480  -0.00300
C47       0.02540   0.13000   0.04900  -0.00200  -0.00310  -0.02800
C49       0.02480   0.15200   0.05000   0.00000  -0.00010  -0.01500
N51       0.02330   0.04710   0.03030   0.00200   0.00030   0.00130
N52       0.02450   0.05650   0.03410   0.00140  -0.00040   0.00230
C53       0.02400   0.07500   0.03410   0.00840  -0.00570   0.01140
C55       0.02660   0.09300   0.03870   0.00000  -0.00480   0.00300
C57       0.02540   0.13000   0.04900  -0.00200   0.00310   0.02800
C59       0.02480   0.15200   0.05000   0.00000   0.00010   0.01500
N61       0.04710   0.02330   0.03030  -0.00200  -0.00130   0.00030
N62       0.05650   0.02450   0.03410  -0.00140  -0.00230  -0.00040
C63       0.07500   0.02400   0.03410  -0.00840  -0.01140  -0.00570
C65       0.09300   0.02660   0.03870   0.00000  -0.00300  -0.00480
C67       0.13000   0.02540   0.04900   0.00200  -0.02800   0.00310
C69       0.15200   0.02480   0.05000   0.00000  -0.01500   0.00010
N71       0.04710   0.02330   0.03030  -0.00200   0.00130  -0.00030
N72       0.05650   0.02450   0.03410  -0.00140   0.00230   0.00040
C73       0.07500   0.02400   0.03410  -0.00840   0.01140   0.00570
C75       0.09300   0.02660   0.03870   0.00000   0.00300   0.00480
C77       0.13000   0.02540   0.04900   0.00200   0.02800  -0.00310
C79       0.15200   0.02480   0.05000   0.00000   0.01500  -0.00010
Co81      0.02490   0.02490   0.02650  -0.00028  -0.00071   0.00071
Co82      0.02490   0.02490   0.02650  -0.00028   0.00071  -0.00071
Co83      0.02490   0.02490   0.02650   0.00028  -0.00071  -0.00071
Co84      0.02490   0.02490   0.02650   0.00028   0.00071   0.00071
C85       0.01940   0.07600   0.04700   0.00000   0.00000   0.01000
C86       0.02310   0.06200   0.03900   0.00000   0.00000   0.00900
C87       0.02250   0.08400   0.04600   0.00000   0.00000   0.03100
C88       0.02300   0.08800   0.05200   0.00000   0.00000  -0.00900
C89       0.01940   0.07600   0.04700   0.00000   0.00000  -0.01000
C90       0.02310   0.06200   0.03900   0.00000   0.00000  -0.00900
C91       0.02250   0.08400   0.04600   0.00000   0.00000  -0.03100
C92       0.02300   0.08800   0.05200   0.00000   0.00000   0.00900
C93       0.07600   0.01940   0.04700   0.00000  -0.01000   0.00000
C94       0.06200   0.02310   0.03900   0.00000  -0.00900   0.00000
C95       0.08400   0.02250   0.04600   0.00000  -0.03100   0.00000
C96       0.08800   0.02300   0.05200   0.00000   0.00900   0.00000
C97       0.07600   0.01940   0.04700   0.00000   0.01000   0.00000
C98       0.06200   0.02310   0.03900   0.00000   0.00900   0.00000
C99       0.08400   0.02250   0.04600   0.00000   0.03100   0.00000
C100      0.08800   0.02300   0.05200   0.00000  -0.00900   0.00000
N101      0.02330   0.04710   0.03030  -0.00200  -0.00030   0.00130
N102      0.02450   0.05650   0.03410  -0.00140   0.00040   0.00230
C103      0.02400   0.07500   0.03410  -0.00840   0.00570   0.01140
C105      0.02660   0.09300   0.03870   0.00000   0.00480   0.00300
C107      0.02540   0.13000   0.04900   0.00200  -0.00310   0.02800
C109      0.02480   0.15200   0.05000   0.00000  -0.00010   0.01500
N111      0.02330   0.04710   0.03030  -0.00200   0.00030  -0.00130
N112      0.02450   0.05650   0.03410  -0.00140  -0.00040  -0.00230
C113      0.02400   0.07500   0.03410  -0.00840  -0.00570  -0.01140
C115      0.02660   0.09300   0.03870   0.00000  -0.00480  -0.00300
C117      0.02540   0.13000   0.04900   0.00200   0.00310  -0.02800
C119      0.02480   0.15200   0.05000   0.00000   0.00010  -0.01500
N121      0.04710   0.02330   0.03030   0.00200  -0.00130  -0.00030
N122      0.05650   0.02450   0.03410   0.00140  -0.00230   0.00040
C123      0.07500   0.02400   0.03410   0.00840  -0.01140   0.00570
C125      0.09300   0.02660   0.03870   0.00000  -0.00300   0.00480
C127      0.13000   0.02540   0.04900  -0.00200  -0.02800  -0.00310
C129      0.15200   0.02480   0.05000   0.00000  -0.01500  -0.00010
N131      0.04710   0.02330   0.03030   0.00200   0.00130   0.00030
N132      0.05650   0.02450   0.03410   0.00140   0.00230  -0.00040
C133      0.07500   0.02400   0.03410   0.00840   0.01140  -0.00570
C135      0.09300   0.02660   0.03870   0.00000   0.00300  -0.00480
C137      0.13000   0.02540   0.04900  -0.00200   0.02800   0.00310
C139      0.15200   0.02480   0.05000   0.00000   0.01500   0.00010
N141      0.02330   0.04710   0.03030   0.00200  -0.00030  -0.00130
N142      0.02450   0.05650   0.03410   0.00140   0.00040  -0.00230
C143      0.02400   0.07500   0.03410   0.00840   0.00570  -0.01140
C145      0.02660   0.09300   0.03870   0.00000   0.00480  -0.00300
C147      0.02540   0.13000   0.04900  -0.00200  -0.00310  -0.02800
C149      0.02480   0.15200   0.05000   0.00000  -0.00010  -0.01500
N151      0.02330   0.04710   0.03030   0.00200   0.00030   0.00130
N152      0.02450   0.05650   0.03410   0.00140  -0.00040   0.00230
C153      0.02400   0.07500   0.03410   0.00840  -0.00570   0.01140
C155      0.02660   0.09300   0.03870   0.00000  -0.00480   0.00300
C157      0.02540   0.13000   0.04900  -0.00200   0.00310   0.02800
C159      0.02480   0.15200   0.05000   0.00000   0.00010   0.01500
N161      0.04710   0.02330   0.03030  -0.00200  -0.00130   0.00030
N162      0.05650   0.02450   0.03410  -0.00140  -0.00230  -0.00040
C163      0.07500   0.02400   0.03410  -0.00840  -0.01140  -0.00570
C165      0.09300   0.02660   0.03870   0.00000  -0.00300  -0.00480
C167      0.13000   0.02540   0.04900   0.00200  -0.02800   0.00310
C169      0.15200   0.02480   0.05000   0.00000  -0.01500   0.00010
N171      0.04710   0.02330   0.03030  -0.00200   0.00130  -0.00030
N172      0.05650   0.02450   0.03410  -0.00140   0.00230   0.00040
C173      0.07500   0.02400   0.03410  -0.00840   0.01140   0.00570
C175      0.09300   0.02660   0.03870   0.00000   0.00300   0.00480
C177      0.13000   0.02540   0.04900   0.00200   0.02800  -0.00310
C179      0.15200   0.02480   0.05000   0.00000   0.01500  -0.00010
Co181     0.02490   0.02490   0.02650  -0.00028  -0.00071   0.00071
Co182     0.02490   0.02490   0.02650  -0.00028   0.00071  -0.00071
Co183     0.02490   0.02490   0.02650   0.00028  -0.00071  -0.00071
Co184     0.02490   0.02490   0.02650   0.00028   0.00071   0.00071
C185      0.01940   0.07600   0.04700   0.00000   0.00000   0.01000
C186      0.02310   0.06200   0.03900   0.00000   0.00000   0.00900
C187      0.02250   0.08400   0.04600   0.00000   0.00000   0.03100
C188      0.02300   0.08800   0.05200   0.00000   0.00000  -0.00900
C189      0.01940   0.07600   0.04700   0.00000   0.00000  -0.01000
C190      0.02310   0.06200   0.03900   0.00000   0.00000  -0.00900
C191      0.02250   0.08400   0.04600   0.00000   0.00000  -0.03100
C192      0.02300   0.08800   0.05200   0.00000   0.00000   0.00900
C193      0.07600   0.01940   0.04700   0.00000  -0.01000   0.00000
C194      0.06200   0.02310   0.03900   0.00000  -0.00900   0.00000
C195      0.08400   0.02250   0.04600   0.00000  -0.03100   0.00000
C196      0.08800   0.02300   0.05200   0.00000   0.00900   0.00000
C197      0.07600   0.01940   0.04700   0.00000   0.01000   0.00000
C198      0.06200   0.02310   0.03900   0.00000   0.00900   0.00000
C199      0.08400   0.02250   0.04600   0.00000   0.03100   0.00000
C200      0.08800   0.02300   0.05200   0.00000  -0.00900   0.00000
N201      0.02330   0.04710   0.03030  -0.00200  -0.00030   0.00130
N202      0.02450   0.05650   0.03410  -0.00140   0.00040   0.00230
C203      0.02400   0.07500   0.03410  -0.00840   0.00570   0.01140
C205      0.02660   0.09300   0.03870   0.00000   0.00480   0.00300
C207      0.02540   0.13000   0.04900   0.00200  -0.00310   0.02800
C209      0.02480   0.15200   0.05000   0.00000  -0.00010   0.01500
N211      0.02330   0.04710   0.03030  -0.00200   0.00030  -0.00130
N212      0.02450   0.05650   0.03410  -0.00140  -0.00040  -0.00230
C213      0.02400   0.07500   0.03410  -0.00840  -0.00570  -0.01140
C215      0.02660   0.09300   0.03870   0.00000  -0.00480  -0.00300
C217      0.02540   0.13000   0.04900   0.00200   0.00310  -0.02800
C219      0.02480   0.15200   0.05000   0.00000   0.00010  -0.01500
N221      0.04710   0.02330   0.03030   0.00200  -0.00130  -0.00030
N222      0.05650   0.02450   0.03410   0.00140  -0.00230   0.00040
C223      0.07500   0.02400   0.03410   0.00840  -0.01140   0.00570
C225      0.09300   0.02660   0.03870   0.00000  -0.00300   0.00480
C227      0.13000   0.02540   0.04900  -0.00200  -0.02800  -0.00310
C229      0.15200   0.02480   0.05000   0.00000  -0.01500  -0.00010
N231      0.04710   0.02330   0.03030   0.00200   0.00130   0.00030
N232      0.05650   0.02450   0.03410   0.00140   0.00230  -0.00040
C233      0.07500   0.02400   0.03410   0.00840   0.01140  -0.00570
C235      0.09300   0.02660   0.03870   0.00000   0.00300  -0.00480
C237      0.13000   0.02540   0.04900  -0.00200   0.02800   0.00310
C239      0.15200   0.02480   0.05000   0.00000   0.01500   0.00010
N241      0.02330   0.04710   0.03030   0.00200  -0.00030  -0.00130
N242      0.02450   0.05650   0.03410   0.00140   0.00040  -0.00230
C243      0.02400   0.07500   0.03410   0.00840   0.00570  -0.01140
C245      0.02660   0.09300   0.03870   0.00000   0.00480  -0.00300
C247      0.02540   0.13000   0.04900  -0.00200  -0.00310  -0.02800
C249      0.02480   0.15200   0.05000   0.00000  -0.00010  -0.01500
N251      0.02330   0.04710   0.03030   0.00200   0.00030   0.00130
N252      0.02450   0.05650   0.03410   0.00140  -0.00040   0.00230
C253      0.02400   0.07500   0.03410   0.00840  -0.00570   0.01140
C255      0.02660   0.09300   0.03870   0.00000  -0.00480   0.00300
C257      0.02540   0.13000   0.04900  -0.00200   0.00310   0.02800
C259      0.02480   0.15200   0.05000   0.00000   0.00010   0.01500
N261      0.04710   0.02330   0.03030  -0.00200  -0.00130   0.00030
N262      0.05650   0.02450   0.03410  -0.00140  -0.00230  -0.00040
C263      0.07500   0.02400   0.03410  -0.00840  -0.01140  -0.00570
C265      0.09300   0.02660   0.03870   0.00000  -0.00300  -0.00480
C267      0.13000   0.02540   0.04900   0.00200  -0.02800   0.00310
C269      0.15200   0.02480   0.05000   0.00000  -0.01500   0.00010
N271      0.04710   0.02330   0.03030  -0.00200   0.00130  -0.00030
N272      0.05650   0.02450   0.03410  -0.00140   0.00230   0.00040
C273      0.07500   0.02400   0.03410  -0.00840   0.01140   0.00570
C275      0.09300   0.02660   0.03870   0.00000   0.00300   0.00480
C277      0.13000   0.02540   0.04900   0.00200   0.02800  -0.00310
C279      0.15200   0.02480   0.05000   0.00000   0.01500  -0.00010
Co281     0.02490   0.02490   0.02650  -0.00028  -0.00071   0.00071
Co282     0.02490   0.02490   0.02650  -0.00028   0.00071  -0.00071
Co283     0.02490   0.02490   0.02650   0.00028  -0.00071  -0.00071
Co284     0.02490   0.02490   0.02650   0.00028   0.00071   0.00071
C285      0.01940   0.07600   0.04700   0.00000   0.00000   0.01000
C286      0.02310   0.06200   0.03900   0.00000   0.00000   0.00900
C287      0.02250   0.08400   0.04600   0.00000   0.00000   0.03100
C288      0.02300   0.08800   0.05200   0.00000   0.00000  -0.00900
C289      0.01940   0.07600   0.04700   0.00000   0.00000  -0.01000
C290      0.02310   0.06200   0.03900   0.00000   0.00000  -0.00900
C291      0.02250   0.08400   0.04600   0.00000   0.00000  -0.03100
C292      0.02300   0.08800   0.05200   0.00000   0.00000   0.00900
C293      0.07600   0.01940   0.04700   0.00000  -0.01000   0.00000
C294      0.06200   0.02310   0.03900   0.00000  -0.00900   0.00000
C295      0.08400   0.02250   0.04600   0.00000  -0.03100   0.00000
C296      0.08800   0.02300   0.05200   0.00000   0.00900   0.00000
C297      0.07600   0.01940   0.04700   0.00000   0.01000   0.00000
C298      0.06200   0.02310   0.03900   0.00000   0.00900   0.00000
C299      0.08400   0.02250   0.04600   0.00000   0.03100   0.00000
C300      0.08800   0.02300   0.05200   0.00000  -0.00900   0.00000
N301      0.02330   0.04710   0.03030  -0.00200  -0.00030   0.00130
N302      0.02450   0.05650   0.03410  -0.00140   0.00040   0.00230
C303      0.02400   0.07500   0.03410  -0.00840   0.00570   0.01140
C305      0.02660   0.09300   0.03870   0.00000   0.00480   0.00300
C307      0.02540   0.13000   0.04900   0.00200  -0.00310   0.02800
C309      0.02480   0.15200   0.05000   0.00000  -0.00010   0.01500
N311      0.02330   0.04710   0.03030  -0.00200   0.00030  -0.00130
N312      0.02450   0.05650   0.03410  -0.00140  -0.00040  -0.00230
C313      0.02400   0.07500   0.03410  -0.00840  -0.00570  -0.01140
C315      0.02660   0.09300   0.03870   0.00000  -0.00480  -0.00300
C317      0.02540   0.13000   0.04900   0.00200   0.00310  -0.02800
C319      0.02480   0.15200   0.05000   0.00000   0.00010  -0.01500
N321      0.04710   0.02330   0.03030   0.00200  -0.00130  -0.00030
N322      0.05650   0.02450   0.03410   0.00140  -0.00230   0.00040
C323      0.07500   0.02400   0.03410   0.00840  -0.01140   0.00570
C325      0.09300   0.02660   0.03870   0.00000  -0.00300   0.00480
C327      0.13000   0.02540   0.04900  -0.00200  -0.02800  -0.00310
C329      0.15200   0.02480   0.05000   0.00000  -0.01500  -0.00010
N331      0.04710   0.02330   0.03030   0.00200   0.00130   0.00030
N332      0.05650   0.02450   0.03410   0.00140   0.00230  -0.00040
C333      0.07500   0.02400   0.03410   0.00840   0.01140  -0.00570
C335      0.09300   0.02660   0.03870   0.00000   0.00300  -0.00480
C337      0.13000   0.02540   0.04900  -0.00200   0.02800   0.00310
C339      0.15200   0.02480   0.05000   0.00000   0.01500   0.00010
N341      0.02330   0.04710   0.03030   0.00200  -0.00030  -0.00130
N342      0.02450   0.05650   0.03410   0.00140   0.00040  -0.00230
C343      0.02400   0.07500   0.03410   0.00840   0.00570  -0.01140
C345      0.02660   0.09300   0.03870   0.00000   0.00480  -0.00300
C347      0.02540   0.13000   0.04900  -0.00200  -0.00310  -0.02800
C349      0.02480   0.15200   0.05000   0.00000  -0.00010  -0.01500
N351      0.02330   0.04710   0.03030   0.00200   0.00030   0.00130
N352      0.02450   0.05650   0.03410   0.00140  -0.00040   0.00230
C353      0.02400   0.07500   0.03410   0.00840  -0.00570   0.01140
C355      0.02660   0.09300   0.03870   0.00000  -0.00480   0.00300
C357      0.02540   0.13000   0.04900  -0.00200   0.00310   0.02800
C359      0.02480   0.15200   0.05000   0.00000   0.00010   0.01500
N361      0.04710   0.02330   0.03030  -0.00200  -0.00130   0.00030
N362      0.05650   0.02450   0.03410  -0.00140  -0.00230  -0.00040
C363      0.07500   0.02400   0.03410  -0.00840  -0.01140  -0.00570
C365      0.09300   0.02660   0.03870   0.00000  -0.00300  -0.00480
C367      0.13000   0.02540   0.04900   0.00200  -0.02800   0.00310
C369      0.15200   0.02480   0.05000   0.00000  -0.01500   0.00010
N371      0.04710   0.02330   0.03030  -0.00200   0.00130  -0.00030
N372      0.05650   0.02450   0.03410  -0.00140   0.00230   0.00040
C373      0.07500   0.02400   0.03410  -0.00840   0.01140   0.00570
C375      0.09300   0.02660   0.03870   0.00000   0.00300   0.00480
C377      0.13000   0.02540   0.04900   0.00200   0.02800  -0.00310
C379      0.15200   0.02480   0.05000   0.00000   0.01500  -0.00010
Co381     0.02490   0.02490   0.02650  -0.00028  -0.00071   0.00071
Co382     0.02490   0.02490   0.02650  -0.00028   0.00071  -0.00071
Co383     0.02490   0.02490   0.02650   0.00028  -0.00071  -0.00071
Co384     0.02490   0.02490   0.02650   0.00028   0.00071   0.00071
C385      0.01940   0.07600   0.04700   0.00000   0.00000   0.01000
C386      0.02310   0.06200   0.03900   0.00000   0.00000   0.00900
C387      0.02250   0.08400   0.04600   0.00000   0.00000   0.03100
C388      0.02300   0.08800   0.05200   0.00000   0.00000  -0.00900
C389      0.01940   0.07600   0.04700   0.00000   0.00000  -0.01000
C390      0.02310   0.06200   0.03900   0.00000   0.00000  -0.00900
C391      0.02250   0.08400   0.04600   0.00000   0.00000  -0.03100
C392      0.02300   0.08800   0.05200   0.00000   0.00000   0.00900
C393      0.07600   0.01940   0.04700   0.00000  -0.01000   0.00000
C394      0.06200   0.02310   0.03900   0.00000  -0.00900   0.00000
C395      0.08400   0.02250   0.04600   0.00000  -0.03100   0.00000
C396      0.08800   0.02300   0.05200   0.00000   0.00900   0.00000
C397      0.07600   0.01940   0.04700   0.00000   0.01000   0.00000
C398      0.06200   0.02310   0.03900   0.00000   0.00900   0.00000
C399      0.08400   0.02250   0.04600   0.00000   0.03100   0.00000
C400      0.08800   0.02300   0.05200   0.00000  -0.00900   0.00000
N401      0.02330   0.04710   0.03030  -0.00200  -0.00030   0.00130
N402      0.02450   0.05650   0.03410  -0.00140   0.00040   0.00230
C403      0.02400   0.07500   0.03410  -0.00840   0.00570   0.01140
C405      0.02660   0.09300   0.03870   0.00000   0.00480   0.00300
C407      0.02540   0.13000   0.04900   0.00200  -0.00310   0.02800
C409      0.02480   0.15200   0.05000   0.00000  -0.00010   0.01500
N411      0.02330   0.04710   0.03030  -0.00200   0.00030  -0.00130
N412      0.02450   0.05650   0.03410  -0.00140  -0.00040  -0.00230
C413      0.02400   0.07500   0.03410  -0.00840  -0.00570  -0.01140
C415      0.02660   0.09300   0.03870   0.00000  -0.00480  -0.00300
C417      0.02540   0.13000   0.04900   0.00200   0.00310  -0.02800
C419      0.02480   0.15200   0.05000   0.00000   0.00010  -0.01500
N421      0.04710   0.02330   0.03030   0.00200  -0.00130  -0.00030
N422      0.05650   0.02450   0.03410   0.00140  -0.00230   0.00040
C423      0.07500   0.02400   0.03410   0.00840  -0.01140   0.00570
C425      0.09300   0.02660   0.03870   0.00000  -0.00300   0.00480
C427      0.13000   0.02540   0.04900  -0.00200  -0.02800  -0.00310
C429      0.15200   0.02480   0.05000   0.00000  -0.01500  -0.00010
N431      0.04710   0.02330   0.03030   0.00200   0.00130   0.00030
N432      0.05650   0.02450   0.03410   0.00140   0.00230  -0.00040
C433      0.07500   0.02400   0.03410   0.00840   0.01140  -0.00570
C435      0.09300   0.02660   0.03870   0.00000   0.00300  -0.00480
C437      0.13000   0.02540   0.04900  -0.00200   0.02800   0.00310
C439      0.15200   0.02480   0.05000   0.00000   0.01500   0.00010
N441      0.02330   0.04710   0.03030   0.00200  -0.00030  -0.00130
N442      0.02450   0.05650   0.03410   0.00140   0.00040  -0.00230
C443      0.02400   0.07500   0.03410   0.00840   0.00570  -0.01140
C445      0.02660   0.09300   0.03870   0.00000   0.00480  -0.00300
C447      0.02540   0.13000   0.04900  -0.00200  -0.00310  -0.02800
C449      0.02480   0.15200   0.05000   0.00000  -0.00010  -0.01500
N451      0.02330   0.04710   0.03030   0.00200   0.00030   0.00130
N452      0.02450   0.05650   0.03410   0.00140  -0.00040   0.00230
C453      0.02400   0.07500   0.03410   0.00840  -0.00570   0.01140
C455      0.02660   0.09300   0.03870   0.00000  -0.00480   0.00300
C457      0.02540   0.13000   0.04900  -0.00200   0.00310   0.02800
C459      0.02480   0.15200   0.05000   0.00000   0.00010   0.01500
N461      0.04710   0.02330   0.03030  -0.00200  -0.00130   0.00030
N462      0.05650   0.02450   0.03410  -0.00140  -0.00230  -0.00040
C463      0.07500   0.02400   0.03410  -0.00840  -0.01140  -0.00570
C465      0.09300   0.02660   0.03870   0.00000  -0.00300  -0.00480
C467      0.13000   0.02540   0.04900   0.00200  -0.02800   0.00310
C469      0.15200   0.02480   0.05000   0.00000  -0.01500   0.00010
N471      0.04710   0.02330   0.03030  -0.00200   0.00130  -0.00030
N472      0.05650   0.02450   0.03410  -0.00140   0.00230   0.00040
C473      0.07500   0.02400   0.03410  -0.00840   0.01140   0.00570
C475      0.09300   0.02660   0.03870   0.00000   0.00300   0.00480
C477      0.13000   0.02540   0.04900   0.00200   0.02800  -0.00310
C479      0.15200   0.02480   0.05000   0.00000   0.01500  -0.00010
Co481     0.02490   0.02490   0.02650  -0.00028  -0.00071   0.00071
Co482     0.02490   0.02490   0.02650  -0.00028   0.00071  -0.00071
Co483     0.02490   0.02490   0.02650   0.00028  -0.00071  -0.00071
Co484     0.02490   0.02490   0.02650   0.00028   0.00071   0.00071
C485      0.01940   0.07600   0.04700   0.00000   0.00000   0.01000
C486      0.02310   0.06200   0.03900   0.00000   0.00000   0.00900
C487      0.02250   0.08400   0.04600   0.00000   0.00000   0.03100
C488      0.02300   0.08800   0.05200   0.00000   0.00000  -0.00900
C489      0.01940   0.07600   0.04700   0.00000   0.00000  -0.01000
C490      0.02310   0.06200   0.03900   0.00000   0.00000  -0.00900
C491      0.02250   0.08400   0.04600   0.00000   0.00000  -0.03100
C492      0.02300   0.08800   0.05200   0.00000   0.00000   0.00900
C493      0.07600   0.01940   0.04700   0.00000  -0.01000   0.00000
C494      0.06200   0.02310   0.03900   0.00000  -0.00900   0.00000
C495      0.08400   0.02250   0.04600   0.00000  -0.03100   0.00000
C496      0.08800   0.02300   0.05200   0.00000   0.00900   0.00000
C497      0.07600   0.01940   0.04700   0.00000   0.01000   0.00000
C498      0.06200   0.02310   0.03900   0.00000   0.00900   0.00000
C499      0.08400   0.02250   0.04600   0.00000   0.03100   0.00000
C500      0.08800   0.02300   0.05200   0.00000  -0.00900   0.00000
N501      0.02330   0.04710   0.03030  -0.00200  -0.00030   0.00130
N502      0.02450   0.05650   0.03410  -0.00140   0.00040   0.00230
C503      0.02400   0.07500   0.03410  -0.00840   0.00570   0.01140
C505      0.02660   0.09300   0.03870   0.00000   0.00480   0.00300
C507      0.02540   0.13000   0.04900   0.00200  -0.00310   0.02800
C509      0.02480   0.15200   0.05000   0.00000  -0.00010   0.01500
N511      0.02330   0.04710   0.03030  -0.00200   0.00030  -0.00130
N512      0.02450   0.05650   0.03410  -0.00140  -0.00040  -0.00230
C513      0.02400   0.07500   0.03410  -0.00840  -0.00570  -0.01140
C515      0.02660   0.09300   0.03870   0.00000  -0.00480  -0.00300
C517      0.02540   0.13000   0.04900   0.00200   0.00310  -0.02800
C519      0.02480   0.15200   0.05000   0.00000   0.00010  -0.01500
N521      0.04710   0.02330   0.03030   0.00200  -0.00130  -0.00030
N522      0.05650   0.02450   0.03410   0.00140  -0.00230   0.00040
C523      0.07500   0.02400   0.03410   0.00840  -0.01140   0.00570
C525      0.09300   0.02660   0.03870   0.00000  -0.00300   0.00480
C527      0.13000   0.02540   0.04900  -0.00200  -0.02800  -0.00310
C529      0.15200   0.02480   0.05000   0.00000  -0.01500  -0.00010
N531      0.04710   0.02330   0.03030   0.00200   0.00130   0.00030
N532      0.05650   0.02450   0.03410   0.00140   0.00230  -0.00040
C533      0.07500   0.02400   0.03410   0.00840   0.01140  -0.00570
C535      0.09300   0.02660   0.03870   0.00000   0.00300  -0.00480
C537      0.13000   0.02540   0.04900  -0.00200   0.02800   0.00310
C539      0.15200   0.02480   0.05000   0.00000   0.01500   0.00010
N541      0.02330   0.04710   0.03030   0.00200  -0.00030  -0.00130
N542      0.02450   0.05650   0.03410   0.00140   0.00040  -0.00230
C543      0.02400   0.07500   0.03410   0.00840   0.00570  -0.01140
C545      0.02660   0.09300   0.03870   0.00000   0.00480  -0.00300
C547      0.02540   0.13000   0.04900  -0.00200  -0.00310  -0.02800
C549      0.02480   0.15200   0.05000   0.00000  -0.00010  -0.01500
N551      0.02330   0.04710   0.03030   0.00200   0.00030   0.00130
N552      0.02450   0.05650   0.03410   0.00140  -0.00040   0.00230
C553      0.02400   0.07500   0.03410   0.00840  -0.00570   0.01140
C555      0.02660   0.09300   0.03870   0.00000  -0.00480   0.00300
C557      0.02540   0.13000   0.04900  -0.00200   0.00310   0.02800
C559      0.02480   0.15200   0.05000   0.00000   0.00010   0.01500
N561      0.04710   0.02330   0.03030  -0.00200  -0.00130   0.00030
N562      0.05650   0.02450   0.03410  -0.00140  -0.00230  -0.00040
C563      0.07500   0.02400   0.03410  -0.00840  -0.01140  -0.00570
C565      0.09300   0.02660   0.03870   0.00000  -0.00300  -0.00480
C567      0.13000   0.02540   0.04900   0.00200  -0.02800   0.00310
C569      0.15200   0.02480   0.05000   0.00000  -0.01500   0.00010
N571      0.04710   0.02330   0.03030  -0.00200   0.00130  -0.00030
N572      0.05650   0.02450   0.03410  -0.00140   0.00230   0.00040
C573      0.07500   0.02400   0.03410  -0.00840   0.01140   0.00570
C575      0.09300   0.02660   0.03870   0.00000   0.00300   0.00480
C577      0.13000   0.02540   0.04900   0.00200   0.02800  -0.00310
C579      0.15200   0.02480   0.05000   0.00000   0.01500  -0.00010
Co581     0.02490   0.02490   0.02650  -0.00028  -0.00071   0.00071
Co582     0.02490   0.02490   0.02650  -0.00028   0.00071  -0.00071
Co583     0.02490   0.02490   0.02650   0.00028  -0.00071  -0.00071
Co584     0.02490   0.02490   0.02650   0.00028   0.00071   0.00071
C585      0.01940   0.07600   0.04700   0.00000   0.00000   0.01000
C586      0.02310   0.06200   0.03900   0.00000   0.00000   0.00900
C587      0.02250   0.08400   0.04600   0.00000   0.00000   0.03100
C588      0.02300   0.08800   0.05200   0.00000   0.00000  -0.00900
C589      0.01940   0.07600   0.04700   0.00000   0.00000  -0.01000
C590      0.02310   0.06200   0.03900   0.00000   0.00000  -0.00900
C591      0.02250   0.08400   0.04600   0.00000   0.00000  -0.03100
C592      0.02300   0.08800   0.05200   0.00000   0.00000   0.00900
C593      0.07600   0.01940   0.04700   0.00000  -0.01000   0.00000
C594      0.06200   0.02310   0.03900   0.00000  -0.00900   0.00000
C595      0.08400   0.02250   0.04600   0.00000  -0.03100   0.00000
C596      0.08800   0.02300   0.05200   0.00000   0.00900   0.00000
C597      0.07600   0.01940   0.04700   0.00000   0.01000   0.00000
C598      0.06200   0.02310   0.03900   0.00000   0.00900   0.00000
C599      0.08400   0.02250   0.04600   0.00000   0.03100   0.00000
C600      0.08800   0.02300   0.05200   0.00000  -0.00900   0.00000
N601      0.02330   0.04710   0.03030  -0.00200  -0.00030   0.00130
N602      0.02450   0.05650   0.03410  -0.00140   0.00040   0.00230
C603      0.02400   0.07500   0.03410  -0.00840   0.00570   0.01140
C605      0.02660   0.09300   0.03870   0.00000   0.00480   0.00300
C607      0.02540   0.13000   0.04900   0.00200  -0.00310   0.02800
C609      0.02480   0.15200   0.05000   0.00000  -0.00010   0.01500
N611      0.02330   0.04710   0.03030  -0.00200   0.00030  -0.00130
N612      0.02450   0.05650   0.03410  -0.00140  -0.00040  -0.00230
C613      0.02400   0.07500   0.03410  -0.00840  -0.00570  -0.01140
C615      0.02660   0.09300   0.03870   0.00000  -0.00480  -0.00300
C617      0.02540   0.13000   0.04900   0.00200   0.00310  -0.02800
C619      0.02480   0.15200   0.05000   0.00000   0.00010  -0.01500
N621      0.04710   0.02330   0.03030   0.00200  -0.00130  -0.00030
N622      0.05650   0.02450   0.03410   0.00140  -0.00230   0.00040
C623      0.07500   0.02400   0.03410   0.00840  -0.01140   0.00570
C625      0.09300   0.02660   0.03870   0.00000  -0.00300   0.00480
C627      0.13000   0.02540   0.04900  -0.00200  -0.02800  -0.00310
C629      0.15200   0.02480   0.05000   0.00000  -0.01500  -0.00010
N631      0.04710   0.02330   0.03030   0.00200   0.00130   0.00030
N632      0.05650   0.02450   0.03410   0.00140   0.00230  -0.00040
C633      0.07500   0.02400   0.03410   0.00840   0.01140  -0.00570
C635      0.09300   0.02660   0.03870   0.00000   0.00300  -0.00480
C637      0.13000   0.02540   0.04900  -0.00200   0.02800   0.00310
C639      0.15200   0.02480   0.05000   0.00000   0.01500   0.00010
N641      0.02330   0.04710   0.03030   0.00200  -0.00030  -0.00130
N642      0.02450   0.05650   0.03410   0.00140   0.00040  -0.00230
C643      0.02400   0.07500   0.03410   0.00840   0.00570  -0.01140
C645      0.02660   0.09300   0.03870   0.00000   0.00480  -0.00300
C647      0.02540   0.13000   0.04900  -0.00200  -0.00310  -0.02800
C649      0.02480   0.15200   0.05000   0.00000  -0.00010  -0.01500
N651      0.02330   0.04710   0.03030   0.00200   0.00030   0.00130
N652      0.02450   0.05650   0.03410   0.00140  -0.00040   0.00230
C653      0.02400   0.07500   0.03410   0.00840  -0.00570   0.01140
C655      0.02660   0.09300   0.03870   0.00000  -0.00480   0.00300
C657      0.02540   0.13000   0.04900  -0.00200   0.00310   0.02800
C659      0.02480   0.15200   0.05000   0.00000   0.00010   0.01500
N661      0.04710   0.02330   0.03030  -0.00200  -0.00130   0.00030
N662      0.05650   0.02450   0.03410  -0.00140  -0.00230  -0.00040
C663      0.07500   0.02400   0.03410  -0.00840  -0.01140  -0.00570
C665      0.09300   0.02660   0.03870   0.00000  -0.00300  -0.00480
C667      0.13000   0.02540   0.04900   0.00200  -0.02800   0.00310
C669      0.15200   0.02480   0.05000   0.00000  -0.01500   0.00010
N671      0.04710   0.02330   0.03030  -0.00200   0.00130  -0.00030
N672      0.05650   0.02450   0.03410  -0.00140   0.00230   0.00040
C673      0.07500   0.02400   0.03410  -0.00840   0.01140   0.00570
C675      0.09300   0.02660   0.03870   0.00000   0.00300   0.00480
C677      0.13000   0.02540   0.04900   0.00200   0.02800  -0.00310
C679      0.15200   0.02480   0.05000   0.00000   0.01500  -0.00010
Co681     0.02490   0.02490   0.02650  -0.00028  -0.00071   0.00071
Co682     0.02490   0.02490   0.02650  -0.00028   0.00071  -0.00071
Co683     0.02490   0.02490   0.02650   0.00028  -0.00071  -0.00071
Co684     0.02490   0.02490   0.02650   0.00028   0.00071   0.00071
C685      0.01940   0.07600   0.04700   0.00000   0.00000   0.01000
C686      0.02310   0.06200   0.03900   0.00000   0.00000   0.00900
C687      0.02250   0.08400   0.04600   0.00000   0.00000   0.03100
C688      0.02300   0.08800   0.05200   0.00000   0.00000  -0.00900
C689      0.01940   0.07600   0.04700   0.00000   0.00000  -0.01000
C690      0.02310   0.06200   0.03900   0.00000   0.00000  -0.00900
C691      0.02250   0.08400   0.04600   0.00000   0.00000  -0.03100
C692      0.02300   0.08800   0.05200   0.00000   0.00000   0.00900
C693      0.07600   0.01940   0.04700   0.00000  -0.01000   0.00000
C694      0.06200   0.02310   0.03900   0.00000  -0.00900   0.00000
C695      0.08400   0.02250   0.04600   0.00000  -0.03100   0.00000
C696      0.08800   0.02300   0.05200   0.00000   0.00900   0.00000
C697      0.07600   0.01940   0.04700   0.00000   0.01000   0.00000
C698      0.06200   0.02310   0.03900   0.00000   0.00900   0.00000
C699      0.08400   0.02250   0.04600   0.00000   0.03100   0.00000
C700      0.08800   0.02300   0.05200   0.00000  -0.00900   0.00000
N701      0.02330   0.04710   0.03030  -0.00200  -0.00030   0.00130
N702      0.02450   0.05650   0.03410  -0.00140   0.00040   0.00230
C703      0.02400   0.07500   0.03410  -0.00840   0.00570   0.01140
C705      0.02660   0.09300   0.03870   0.00000   0.00480   0.00300
C707      0.02540   0.13000   0.04900   0.00200  -0.00310   0.02800
C709      0.02480   0.15200   0.05000   0.00000  -0.00010   0.01500
N711      0.02330   0.04710   0.03030  -0.00200   0.00030  -0.00130
N712      0.02450   0.05650   0.03410  -0.00140  -0.00040  -0.00230
C713      0.02400   0.07500   0.03410  -0.00840  -0.00570  -0.01140
C715      0.02660   0.09300   0.03870   0.00000  -0.00480  -0.00300
C717      0.02540   0.13000   0.04900   0.00200   0.00310  -0.02800
C719      0.02480   0.15200   0.05000   0.00000   0.00010  -0.01500
N721      0.04710   0.02330   0.03030   0.00200  -0.00130  -0.00030
N722      0.05650   0.02450   0.03410   0.00140  -0.00230   0.00040
C723      0.07500   0.02400   0.03410   0.00840  -0.01140   0.00570
C725      0.09300   0.02660   0.03870   0.00000  -0.00300   0.00480
C727      0.13000   0.02540   0.04900  -0.00200  -0.02800  -0.00310
C729      0.15200   0.02480   0.05000   0.00000  -0.01500  -0.00010
N731      0.04710   0.02330   0.03030   0.00200   0.00130   0.00030
N732      0.05650   0.02450   0.03410   0.00140   0.00230  -0.00040
C733      0.07500   0.02400   0.03410   0.00840   0.01140  -0.00570
C735      0.09300   0.02660   0.03870   0.00000   0.00300  -0.00480
C737      0.13000   0.02540   0.04900  -0.00200   0.02800   0.00310
C739      0.15200   0.02480   0.05000   0.00000   0.01500   0.00010
N741      0.02330   0.04710   0.03030   0.00200  -0.00030  -0.00130
N742      0.02450   0.05650   0.03410   0.00140   0.00040  -0.00230
C743      0.02400   0.07500   0.03410   0.00840   0.00570  -0.01140
C745      0.02660   0.09300   0.03870   0.00000   0.00480  -0.00300
C747      0.02540   0.13000   0.04900  -0.00200  -0.00310  -0.02800
C749      0.02480   0.15200   0.05000   0.00000  -0.00010  -0.01500
N751      0.02330   0.04710   0.03030   0.00200   0.00030   0.00130
N752      0.02450   0.05650   0.03410   0.00140  -0.00040   0.00230
C753      0.02400   0.07500   0.03410   0.00840  -0.00570   0.01140
C755      0.02660   0.09300   0.03870   0.00000  -0.00480   0.00300
C757      0.02540   0.13000   0.04900  -0.00200   0.00310   0.02800
C759      0.02480   0.15200   0.05000   0.00000   0.00010   0.01500
N761      0.04710   0.02330   0.03030  -0.00200  -0.00130   0.00030
N762      0.05650   0.02450   0.03410  -0.00140  -0.00230  -0.00040
C763      0.07500   0.02400   0.03410  -0.00840  -0.01140  -0.00570
C765      0.09300   0.02660   0.03870   0.00000  -0.00300  -0.00480
C767      0.13000   0.02540   0.04900   0.00200  -0.02800   0.00310
C769      0.15200   0.02480   0.05000   0.00000  -0.01500   0.00010
N771      0.04710   0.02330   0.03030  -0.00200   0.00130  -0.00030
N772      0.05650   0.02450   0.03410  -0.00140   0.00230   0.00040
C773      0.07500   0.02400   0.03410  -0.00840   0.01140   0.00570
C775      0.09300   0.02660   0.03870   0.00000   0.00300   0.00480
C777      0.13000   0.02540   0.04900   0.00200   0.02800  -0.00310
C779      0.15200   0.02480   0.05000   0.00000   0.01500  -0.00010
Co781     0.02490   0.02490   0.02650  -0.00028  -0.00071   0.00071
Co782     0.02490   0.02490   0.02650  -0.00028   0.00071  -0.00071
Co783     0.02490   0.02490   0.02650   0.00028  -0.00071  -0.00071
Co784     0.02490   0.02490   0.02650   0.00028   0.00071   0.00071
C785      0.01940   0.07600   0.04700   0.00000   0.00000   0.01000
C786      0.02310   0.06200   0.03900   0.00000   0.00000   0.00900
C787      0.02250   0.08400   0.04600   0.00000   0.00000   0.03100
C788      0.02300   0.08800   0.05200   0.00000   0.00000  -0.00900
C789      0.01940   0.07600   0.04700   0.00000   0.00000  -0.01000
C790      0.02310   0.06200   0.03900   0.00000   0.00000  -0.00900
C791      0.02250   0.08400   0.04600   0.00000   0.00000  -0.03100
C792      0.02300   0.08800   0.05200   0.00000   0.00000   0.00900
C793      0.07600   0.01940   0.04700   0.00000  -0.01000   0.00000
C794      0.06200   0.02310   0.03900   0.00000  -0.00900   0.00000
C795      0.08400   0.02250   0.04600   0.00000  -0.03100   0.00000
C796      0.08800   0.02300   0.05200   0.00000   0.00900   0.00000
C797      0.07600   0.01940   0.04700   0.00000   0.01000   0.00000
C798      0.06200   0.02310   0.03900   0.00000   0.00900   0.00000
C799      0.08400   0.02250   0.04600   0.00000   0.03100   0.00000
C800      0.08800   0.02300   0.05200   0.00000  -0.00900   0.00000
N801      0.02330   0.04710   0.03030  -0.00200  -0.00030   0.00130
N802      0.02450   0.05650   0.03410  -0.00140   0.00040   0.00230
C803      0.02400   0.07500   0.03410  -0.00840   0.00570   0.01140
C805      0.02660   0.09300   0.03870   0.00000   0.00480   0.00300
C807      0.02540   0.13000   0.04900   0.00200  -0.00310   0.02800
C809      0.02480   0.15200   0.05000   0.00000  -0.00010   0.01500
N811      0.02330   0.04710   0.03030  -0.00200   0.00030  -0.00130
N812      0.02450   0.05650   0.03410  -0.00140  -0.00040  -0.00230
C813      0.02400   0.07500   0.03410  -0.00840  -0.00570  -0.01140
C815      0.02660   0.09300   0.03870   0.00000  -0.00480  -0.00300
C817      0.02540   0.13000   0.04900   0.00200   0.00310  -0.02800
C819      0.02480   0.15200   0.05000   0.00000   0.00010  -0.01500
N821      0.04710   0.02330   0.03030   0.00200  -0.00130  -0.00030
N822      0.05650   0.02450   0.03410   0.00140  -0.00230   0.00040
C823      0.07500   0.02400   0.03410   0.00840  -0.01140   0.00570
C825      0.09300   0.02660   0.03870   0.00000  -0.00300   0.00480
C827      0.13000   0.02540   0.04900  -0.00200  -0.02800  -0.00310
C829      0.15200   0.02480   0.05000   0.00000  -0.01500  -0.00010
N831      0.04710   0.02330   0.03030   0.00200   0.00130   0.00030
N832      0.05650   0.02450   0.03410   0.00140   0.00230  -0.00040
C833      0.07500   0.02400   0.03410   0.00840   0.01140  -0.00570
C835      0.09300   0.02660   0.03870   0.00000   0.00300  -0.00480
C837      0.13000   0.02540   0.04900  -0.00200   0.02800   0.00310
C839      0.15200   0.02480   0.05000   0.00000   0.01500   0.00010
N841      0.02330   0.04710   0.03030   0.00200  -0.00030  -0.00130
N842      0.02450   0.05650   0.03410   0.00140   0.00040  -0.00230
C843      0.02400   0.07500   0.03410   0.00840   0.00570  -0.01140
C845      0.02660   0.09300   0.03870   0.00000   0.00480  -0.00300
C847      0.02540   0.13000   0.04900  -0.00200  -0.00310  -0.02800
C849      0.02480   0.15200   0.05000   0.00000  -0.00010  -0.01500
N851      0.02330   0.04710   0.03030   0.00200   0.00030   0.00130
N852      0.02450   0.05650   0.03410   0.00140  -0.00040   0.00230
C853      0.02400   0.07500   0.03410   0.00840  -0.00570   0.01140
C855      0.02660   0.09300   0.03870   0.00000  -0.00480   0.00300
C857      0.02540   0.13000   0.04900  -0.00200   0.00310   0.02800
C859      0.02480   0.15200   0.05000   0.00000   0.00010   0.01500
N861      0.04710   0.02330   0.03030  -0.00200  -0.00130   0.00030
N862      0.05650   0.02450   0.03410  -0.00140  -0.00230  -0.00040
C863      0.07500   0.02400   0.03410  -0.00840  -0.01140  -0.00570
C865      0.09300   0.02660   0.03870   0.00000  -0.00300  -0.00480
C867      0.13000   0.02540   0.04900   0.00200  -0.02800   0.00310
C869      0.15200   0.02480   0.05000   0.00000  -0.01500   0.00010
N871      0.04710   0.02330   0.03030  -0.00200   0.00130  -0.00030
N872      0.05650   0.02450   0.03410  -0.00140   0.00230   0.00040
C873      0.07500   0.02400   0.03410  -0.00840   0.01140   0.00570
C875      0.09300   0.02660   0.03870   0.00000   0.00300   0.00480
C877      0.13000   0.02540   0.04900   0.00200   0.02800  -0.00310
C879      0.15200   0.02480   0.05000   0.00000   0.01500  -0.00010
Co881     0.02490   0.02490   0.02650  -0.00028  -0.00071   0.00071
Co882     0.02490   0.02490   0.02650  -0.00028   0.00071  -0.00071
Co883     0.02490   0.02490   0.02650   0.00028  -0.00071  -0.00071
Co884     0.02490   0.02490   0.02650   0.00028   0.00071   0.00071
C885      0.01940   0.07600   0.04700   0.00000   0.00000   0.01000
C886      0.02310   0.06200   0.03900   0.00000   0.00000   0.00900
C887      0.02250   0.08400   0.04600   0.00000   0.00000   0.03100
C888      0.02300   0.08800   0.05200   0.00000   0.00000  -0.00900
C889      0.01940   0.07600   0.04700   0.00000   0.00000  -0.01000
C890      0.02310   0.06200   0.03900   0.00000   0.00000  -0.00900
C891      0.02250   0.08400   0.04600   0.00000   0.00000  -0.03100
C892      0.02300   0.08800   0.05200   0.00000   0.00000   0.00900
C893      0.07600   0.01940   0.04700   0.00000  -0.01000   0.00000
C894      0.06200   0.02310   0.03900   0.00000  -0.00900   0.00000
C895      0.08400   0.02250   0.04600   0.00000  -0.03100   0.00000
C896      0.08800   0.02300   0.05200   0.00000   0.00900   0.00000
C897      0.07600   0.01940   0.04700   0.00000   0.01000   0.00000
C898      0.06200   0.02310   0.03900   0.00000   0.00900   0.00000
C899      0.08400   0.02250   0.04600   0.00000   0.03100   0.00000
C900      0.08800   0.02300   0.05200   0.00000  -0.00900   0.00000
N901      0.02330   0.04710   0.03030  -0.00200  -0.00030   0.00130
N902      0.02450   0.05650   0.03410  -0.00140   0.00040   0.00230
C903      0.02400   0.07500   0.03410  -0.00840   0.00570   0.01140
C905      0.02660   0.09300   0.03870   0.00000   0.00480   0.00300
C907      0.02540   0.13000   0.04900   0.00200  -0.00310   0.02800
C909      0.02480   0.15200   0.05000   0.00000  -0.00010   0.01500
N911      0.02330   0.04710   0.03030  -0.00200   0.00030  -0.00130
N912      0.02450   0.05650   0.03410  -0.00140  -0.00040  -0.00230
C913      0.02400   0.07500   0.03410  -0.00840  -0.00570  -0.01140
C915      0.02660   0.09300   0.03870   0.00000  -0.00480  -0.00300
C917      0.02540   0.13000   0.04900   0.00200   0.00310  -0.02800
C919      0.02480   0.15200   0.05000   0.00000   0.00010  -0.01500
N921      0.04710   0.02330   0.03030   0.00200  -0.00130  -0.00030
N922      0.05650   0.02450   0.03410   0.00140  -0.00230   0.00040
C923      0.07500   0.02400   0.03410   0.00840  -0.01140   0.00570
C925      0.09300   0.02660   0.03870   0.00000  -0.00300   0.00480
C927      0.13000   0.02540   0.04900  -0.00200  -0.02800  -0.00310
C929      0.15200   0.02480   0.05000   0.00000  -0.01500  -0.00010
N931      0.04710   0.02330   0.03030   0.00200   0.00130   0.00030
N932      0.05650   0.02450   0.03410   0.00140   0.00230  -0.00040
C933      0.07500   0.02400   0.03410   0.00840   0.01140  -0.00570
C935      0.09300   0.02660   0.03870   0.00000   0.00300  -0.00480
C937      0.13000   0.02540   0.04900  -0.00200   0.02800   0.00310
C939      0.15200   0.02480   0.05000   0.00000   0.01500   0.00010
N941      0.02330   0.04710   0.03030   0.00200  -0.00030  -0.00130
N942      0.02450   0.05650   0.03410   0.00140   0.00040  -0.00230
C943      0.02400   0.07500   0.03410   0.00840   0.00570  -0.01140
C945      0.02660   0.09300   0.03870   0.00000   0.00480  -0.00300
C947      0.02540   0.13000   0.04900  -0.00200  -0.00310  -0.02800
C949      0.02480   0.15200   0.05000   0.00000  -0.00010  -0.01500
N951      0.02330   0.04710   0.03030   0.00200   0.00030   0.00130
N952      0.02450   0.05650   0.03410   0.00140  -0.00040   0.00230
C953      0.02400   0.07500   0.03410   0.00840  -0.00570   0.01140
C955      0.02660   0.09300   0.03870   0.00000  -0.00480   0.00300
C957      0.02540   0.13000   0.04900  -0.00200   0.00310   0.02800
C959      0.02480   0.15200   0.05000   0.00000   0.00010   0.01500
N961      0.04710   0.02330   0.03030  -0.00200  -0.00130   0.00030
N962      0.05650   0.02450   0.03410  -0.00140  -0.00230  -0.00040
C963      0.07500   0.02400   0.03410  -0.00840  -0.01140  -0.00570
C965      0.09300   0.02660   0.03870   0.00000  -0.00300  -0.00480
C967      0.13000   0.02540   0.04900   0.00200  -0.02800   0.00310
C969      0.15200   0.02480   0.05000   0.00000  -0.01500   0.00010
N971      0.04710   0.02330   0.03030  -0.00200   0.00130  -0.00030
N972      0.05650   0.02450   0.03410  -0.00140   0.00230   0.00040
C973      0.07500   0.02400   0.03410  -0.00840   0.01140   0.00570
C975      0.09300   0.02660   0.03870   0.00000   0.00300   0.00480
C977      0.13000   0.02540   0.04900   0.00200   0.02800  -0.00310
C979      0.15200   0.02480   0.05000   0.00000   0.01500  -0.00010
Co981     0.02490   0.02490   0.02650  -0.00028  -0.00071   0.00071
Co982     0.02490   0.02490   0.02650  -0.00028   0.00071  -0.00071
Co983     0.02490   0.02490   0.02650   0.00028  -0.00071  -0.00071
Co984     0.02490   0.02490   0.02650   0.00028   0.00071   0.00071
C985      0.01940   0.07600   0.04700   0.00000   0.00000   0.01000
C986      0.02310   0.06200   0.03900   0.00000   0.00000   0.00900
C987      0.02250   0.08400   0.04600   0.00000   0.00000   0.03100
C988      0.02300   0.08800   0.05200   0.00000   0.00000  -0.00900
C989      0.01940   0.07600   0.04700   0.00000   0.00000  -0.01000
C990      0.02310   0.06200   0.03900   0.00000   0.00000  -0.00900
C991      0.02250   0.08400   0.04600   0.00000   0.00000  -0.03100
C992      0.02300   0.08800   0.05200   0.00000   0.00000   0.00900
C993      0.07600   0.01940   0.04700   0.00000  -0.01000   0.00000
C994      0.06200   0.02310   0.03900   0.00000  -0.00900   0.00000
C995      0.08400   0.02250   0.04600   0.00000  -0.03100   0.00000
C996      0.08800   0.02300   0.05200   0.00000   0.00900   0.00000
C997      0.07600   0.01940   0.04700   0.00000   0.01000   0.00000
C998      0.06200   0.02310   0.03900   0.00000   0.00900   0.00000
C999      0.08400   0.02250   0.04600   0.00000   0.03100   0.00000
C1000     0.08800   0.02300   0.05200   0.00000  -0.00900   0.00000
N1001     0.02330   0.04710   0.03030  -0.00200  -0.00030   0.00130
N1002     0.02450   0.05650   0.03410  -0.00140   0.00040   0.00230
C1003     0.02400   0.07500   0.03410  -0.00840   0.00570   0.01140
C1005     0.02660   0.09300   0.03870   0.00000   0.00480   0.00300
C1007     0.02540   0.13000   0.04900   0.00200  -0.00310   0.02800
C1009     0.02480   0.15200   0.05000   0.00000  -0.00010   0.01500
N1011     0.02330   0.04710   0.03030  -0.00200   0.00030  -0.00130
N1012     0.02450   0.05650   0.03410  -0.00140  -0.00040  -0.00230
C1013     0.02400   0.07500   0.03410  -0.00840  -0.00570  -0.01140
C1015     0.02660   0.09300   0.03870   0.00000  -0.00480  -0.00300
C1017     0.02540   0.13000   0.04900   0.00200   0.00310  -0.02800
C1019     0.02480   0.15200   0.05000   0.00000   0.00010  -0.01500
N1021     0.04710   0.02330   0.03030   0.00200  -0.00130  -0.00030
N1022     0.05650   0.02450   0.03410   0.00140  -0.00230   0.00040
C1023     0.07500   0.02400   0.03410   0.00840  -0.01140   0.00570
C1025     0.09300   0.02660   0.03870   0.00000  -0.00300   0.00480
C1027     0.13000   0.02540   0.04900  -0.00200  -0.02800  -0.00310
C1029     0.15200   0.02480   0.05000   0.00000  -0.01500  -0.00010
N1031     0.04710   0.02330   0.03030   0.00200   0.00130   0.00030
N1032     0.05650   0.02450   0.03410   0.00140   0.00230  -0.00040
C1033     0.07500   0.02400   0.03410   0.00840   0.01140  -0.00570
C1035     0.09300   0.02660   0.03870   0.00000   0.00300  -0.00480
C1037     0.13000   0.02540   0.04900  -0.00200   0.02800   0.00310
C1039     0.15200   0.02480   0.05000   0.00000   0.01500   0.00010
N1041     0.02330   0.04710   0.03030   0.00200  -0.00030  -0.00130
N1042     0.02450   0.05650   0.03410   0.00140   0.00040  -0.00230
C1043     0.02400   0.07500   0.03410   0.00840   0.00570  -0.01140
C1045     0.02660   0.09300   0.03870   0.00000   0.00480  -0.00300
C1047     0.02540   0.13000   0.04900  -0.00200  -0.00310  -0.02800
C1049     0.02480   0.15200   0.05000   0.00000  -0.00010  -0.01500
N1051     0.02330   0.04710   0.03030   0.00200   0.00030   0.00130
N1052     0.02450   0.05650   0.03410   0.00140  -0.00040   0.00230
C1053     0.02400   0.07500   0.03410   0.00840  -0.00570   0.01140
C1055     0.02660   0.09300   0.03870   0.00000  -0.00480   0.00300
C1057     0.02540   0.13000   0.04900  -0.00200   0.00310   0.02800
C1059     0.02480   0.15200   0.05000   0.00000   0.00010   0.01500
N1061     0.04710   0.02330   0.03030  -0.00200  -0.00130   0.00030
N1062     0.05650   0.02450   0.03410  -0.00140  -0.00230  -0.00040
C1063     0.07500   0.02400   0.03410  -0.00840  -0.01140  -0.00570
C1065     0.09300   0.02660   0.03870   0.00000  -0.00300  -0.00480
C1067     0.13000   0.02540   0.04900   0.00200  -0.02800   0.00310
C1069     0.15200   0.02480   0.05000   0.00000  -0.01500   0.00010
N1071     0.04710   0.02330   0.03030  -0.00200   0.00130  -0.00030
N1072     0.05650   0.02450   0.03410  -0.00140   0.00230   0.00040
C1073     0.07500   0.02400   0.03410  -0.00840   0.01140   0.00570
C1075     0.09300   0.02660   0.03870   0.00000   0.00300   0.00480
C1077     0.13000   0.02540   0.04900   0.00200   0.02800  -0.00310
C1079     0.15200   0.02480   0.05000   0.00000   0.01500  -0.00010
Co1081    0.02490   0.02490   0.02650  -0.00028  -0.00071   0.00071
Co1082    0.02490   0.02490   0.02650  -0.00028   0.00071  -0.00071
Co1083    0.02490   0.02490   0.02650   0.00028  -0.00071  -0.00071
Co1084    0.02490   0.02490   0.02650   0.00028   0.00071   0.00071
C1085     0.01940   0.07600   0.04700   0.00000   0.00000   0.01000
C1086     0.02310   0.06200   0.03900   0.00000   0.00000   0.00900
C1087     0.02250   0.08400   0.04600   0.00000   0.00000   0.03100
C1088     0.02300   0.08800   0.05200   0.00000   0.00000  -0.00900
C1089     0.01940   0.07600   0.04700   0.00000   0.00000  -0.01000
C1090     0.02310   0.06200   0.03900   0.00000   0.00000  -0.00900
C1091     0.02250   0.08400   0.04600   0.00000   0.00000  -0.03100
C1092     0.02300   0.08800   0.05200   0.00000   0.00000   0.00900
C1093     0.07600   0.01940   0.04700   0.00000  -0.01000   0.00000
C1094     0.06200   0.02310   0.03900   0.00000  -0.00900   0.00000
C1095     0.08400   0.02250   0.04600   0.00000  -0.03100   0.00000
C1096     0.08800   0.02300   0.05200   0.00000   0.00900   0.00000
C1097     0.07600   0.01940   0.04700   0.00000   0.01000   0.00000
C1098     0.06200   0.02310   0.03900   0.00000   0.00900   0.00000
C1099     0.08400   0.02250   0.04600   0.00000   0.03100   0.00000
C1100     0.08800   0.02300   0.05200   0.00000  -0.00900   0.00000
N1101     0.02330   0.04710   0.03030  -0.00200  -0.00030   0.00130
N1102     0.02450   0.05650   0.03410  -0.00140   0.00040   0.00230
C1103     0.02400   0.07500   0.03410  -0.00840   0.00570   0.01140
C1105     0.02660   0.09300   0.03870   0.00000   0.00480   0.00300
C1107     0.02540   0.13000   0.04900   0.00200  -0.00310   0.02800
C1109     0.02480   0.15200   0.05000   0.00000  -0.00010   0.01500
N1111     0.02330   0.04710   0.03030  -0.00200   0.00030  -0.00130
N1112     0.02450   0.05650   0.03410  -0.00140  -0.00040  -0.00230
C1113     0.02400   0.07500   0.03410  -0.00840  -0.00570  -0.01140
C1115     0.02660   0.09300   0.03870   0.00000  -0.00480  -0.00300
C1117     0.02540   0.13000   0.04900   0.00200   0.00310  -0.02800
C1119     0.02480   0.15200   0.05000   0.00000   0.00010  -0.01500
N1121     0.04710   0.02330   0.03030   0.00200  -0.00130  -0.00030
N1122     0.05650   0.02450   0.03410   0.00140  -0.00230   0.00040
C1123     0.07500   0.02400   0.03410   0.00840  -0.01140   0.00570
C1125     0.09300   0.02660   0.03870   0.00000  -0.00300   0.00480
C1127     0.13000   0.02540   0.04900  -0.00200  -0.02800  -0.00310
C1129     0.15200   0.02480   0.05000   0.00000  -0.01500  -0.00010
N1131     0.04710   0.02330   0.03030   0.00200   0.00130   0.00030
N1132     0.05650   0.02450   0.03410   0.00140   0.00230  -0.00040
C1133     0.07500   0.02400   0.03410   0.00840   0.01140  -0.00570
C1135     0.09300   0.02660   0.03870   0.00000   0.00300  -0.00480
C1137     0.13000   0.02540   0.04900  -0.00200   0.02800   0.00310
C1139     0.15200   0.02480   0.05000   0.00000   0.01500   0.00010
N1141     0.02330   0.04710   0.03030   0.00200  -0.00030  -0.00130
N1142     0.02450   0.05650   0.03410   0.00140   0.00040  -0.00230
C1143     0.02400   0.07500   0.03410   0.00840   0.00570  -0.01140
C1145     0.02660   0.09300   0.03870   0.00000   0.00480  -0.00300
C1147     0.02540   0.13000   0.04900  -0.00200  -0.00310  -0.02800
C1149     0.02480   0.15200   0.05000   0.00000  -0.00010  -0.01500
N1151     0.02330   0.04710   0.03030   0.00200   0.00030   0.00130
N1152     0.02450   0.05650   0.03410   0.00140  -0.00040   0.00230
C1153     0.02400   0.07500   0.03410   0.00840  -0.00570   0.01140
C1155     0.02660   0.09300   0.03870   0.00000  -0.00480   0.00300
C1157     0.02540   0.13000   0.04900  -0.00200   0.00310   0.02800
C1159     0.02480   0.15200   0.05000   0.00000   0.00010   0.01500
N1161     0.04710   0.02330   0.03030  -0.00200  -0.00130   0.00030
N1162     0.05650   0.02450   0.03410  -0.00140  -0.00230  -0.00040
C1163     0.07500   0.02400   0.03410  -0.00840  -0.01140  -0.00570
C1165     0.09300   0.02660   0.03870   0.00000  -0.00300  -0.00480
C1167     0.13000   0.02540   0.04900   0.00200  -0.02800   0.00310
C1169     0.15200   0.02480   0.05000   0.00000  -0.01500   0.00010
N1171     0.04710   0.02330   0.03030  -0.00200   0.00130  -0.00030
N1172     0.05650   0.02450   0.03410  -0.00140   0.00230   0.00040
C1173     0.07500   0.02400   0.03410  -0.00840   0.01140   0.00570
C1175     0.09300   0.02660   0.03870   0.00000   0.00300   0.00480
C1177     0.13000   0.02540   0.04900   0.00200   0.02800  -0.00310
C1179     0.15200   0.02480   0.05000   0.00000   0.01500  -0.00010
Co1181    0.02490   0.02490   0.02650  -0.00028  -0.00071   0.00071
Co1182    0.02490   0.02490   0.02650  -0.00028   0.00071  -0.00071
Co1183    0.02490   0.02490   0.02650   0.00028  -0.00071  -0.00071
Co1184    0.02490   0.02490   0.02650   0.00028   0.00071   0.00071
C1185     0.01940   0.07600   0.04700   0.00000   0.00000   0.01000
C1186     0.02310   0.06200   0.03900   0.00000   0.00000   0.00900
C1187     0.02250   0.08400   0.04600   0.00000   0.00000   0.03100
C1188     0.02300   0.08800   0.05200   0.00000   0.00000  -0.00900
C1189     0.01940   0.07600   0.04700   0.00000   0.00000  -0.01000
C1190     0.02310   0.06200   0.03900   0.00000   0.00000  -0.00900
C1191     0.02250   0.08400   0.04600   0.00000   0.00000  -0.03100
C1192     0.02300   0.08800   0.05200   0.00000   0.00000   0.00900
C1193     0.07600   0.01940   0.04700   0.00000  -0.01000   0.00000
C1194     0.06200   0.02310   0.03900   0.00000  -0.00900   0.00000
C1195     0.08400   0.02250   0.04600   0.00000  -0.03100   0.00000
C1196     0.08800   0.02300   0.05200   0.00000   0.00900   0.00000
C1197     0.07600   0.01940   0.04700   0.00000   0.01000   0.00000
C1198     0.06200   0.02310   0.03900   0.00000   0.00900   0.00000
C1199     0.08400   0.02250   0.04600   0.00000   0.03100   0.00000
C1200     0.08800   0.02300   0.05200   0.00000  -0.00900   0.00000
N1201     0.02330   0.04710   0.03030  -0.00200  -0.00030   0.00130
N1202     0.02450   0.05650   0.03410  -0.00140   0.00040   0.00230
C1203     0.02400   0.07500   0.03410  -0.00840   0.00570   0.01140
C1205     0.02660   0.09300   0.03870   0.00000   0.00480   0.00300
C1207     0.02540   0.13000   0.04900   0.00200  -0.00310   0.02800
C1209     0.02480   0.15200   0.05000   0.00000  -0.00010   0.01500
N1211     0.02330   0.04710   0.03030  -0.00200   0.00030  -0.00130
N1212     0.02450   0.05650   0.03410  -0.00140  -0.00040  -0.00230
C1213     0.02400   0.07500   0.03410  -0.00840  -0.00570  -0.01140
C1215     0.02660   0.09300   0.03870   0.00000  -0.00480  -0.00300
C1217     0.02540   0.13000   0.04900   0.00200   0.00310  -0.02800
C1219     0.02480   0.15200   0.05000   0.00000   0.00010  -0.01500
N1221     0.04710   0.02330   0.03030   0.00200  -0.00130  -0.00030
N1222     0.05650   0.02450   0.03410   0.00140  -0.00230   0.00040
C1223     0.07500   0.02400   0.03410   0.00840  -0.01140   0.00570
C1225     0.09300   0.02660   0.03870   0.00000  -0.00300   0.00480
C1227     0.13000   0.02540   0.04900  -0.00200  -0.02800  -0.00310
C1229     0.15200   0.02480   0.05000   0.00000  -0.01500  -0.00010
N1231     0.04710   0.02330   0.03030   0.00200   0.00130   0.00030
N1232     0.05650   0.02450   0.03410   0.00140   0.00230  -0.00040
C1233     0.07500   0.02400   0.03410   0.00840   0.01140  -0.00570
C1235     0.09300   0.02660   0.03870   0.00000   0.00300  -0.00480
C1237     0.13000   0.02540   0.04900  -0.00200   0.02800   0.00310
C1239     0.15200   0.02480   0.05000   0.00000   0.01500   0.00010
N1241     0.02330   0.04710   0.03030   0.00200  -0.00030  -0.00130
N1242     0.02450   0.05650   0.03410   0.00140   0.00040  -0.00230
C1243     0.02400   0.07500   0.03410   0.00840   0.00570  -0.01140
C1245     0.02660   0.09300   0.03870   0.00000   0.00480  -0.00300
C1247     0.02540   0.13000   0.04900  -0.00200  -0.00310  -0.02800
C1249     0.02480   0.15200   0.05000   0.00000  -0.00010  -0.01500
N1251     0.02330   0.04710   0.03030   0.00200   0.00030   0.00130
N1252     0.02450   0.05650   0.03410   0.00140  -0.00040   0.00230
C1253     0.02400   0.07500   0.03410   0.00840  -0.00570   0.01140
C1255     0.02660   0.09300   0.03870   0.00000  -0.00480   0.00300
C1257     0.02540   0.13000   0.04900  -0.00200   0.00310   0.02800
C1259     0.02480   0.15200   0.05000   0.00000   0.00010   0.01500
N1261     0.04710   0.02330   0.03030  -0.00200  -0.00130   0.00030
N1262     0.05650   0.02450   0.03410  -0.00140  -0.00230  -0.00040
C1263     0.07500   0.02400   0.03410  -0.00840  -0.01140  -0.00570
C1265     0.09300   0.02660   0.03870   0.00000  -0.00300  -0.00480
C1267     0.13000   0.02540   0.04900   0.00200  -0.02800   0.00310
C1269     0.15200   0.02480   0.05000   0.00000  -0.01500   0.00010
N1271     0.04710   0.02330   0.03030  -0.00200   0.00130  -0.00030
N1272     0.05650   0.02450   0.03410  -0.00140   0.00230   0.00040
C1273     0.07500   0.02400   0.03410  -0.00840   0.01140   0.00570
C1275     0.09300   0.02660   0.03870   0.00000   0.00300   0.00480
C1277     0.13000   0.02540   0.04900   0.00200   0.02800  -0.00310
C1279     0.15200   0.02480   0.05000   0.00000   0.01500  -0.00010
Co1281    0.02490   0.02490   0.02650  -0.00028  -0.00071   0.00071
Co1282    0.02490   0.02490   0.02650  -0.00028   0.00071  -0.00071
Co1283    0.02490   0.02490   0.02650   0.00028  -0.00071  -0.00071
Co1284    0.02490   0.02490   0.02650   0.00028   0.00071   0.00071
C1285     0.01940   0.07600   0.04700   0.00000   0.00000   0.01000
C1286     0.02310   0.06200   0.03900   0.00000   0.00000   0.00900
C1287     0.02250   0.08400   0.04600   0.00000   0.00000   0.03100
C1288     0.02300   0.08800   0.05200   0.00000   0.00000  -0.00900
C1289     0.01940   0.07600   0.04700   0.00000   0.00000  -0.01000
C1290     0.02310   0.06200   0.03900   0.00000   0.00000  -0.00900
C1291     0.02250   0.08400   0.04600   0.00000   0.00000  -0.03100
C1292     0.02300   0.08800   0.05200   0.00000   0.00000   0.00900
C1293     0.07600   0.01940   0.04700   0.00000  -0.01000   0.00000
C1294     0.06200   0.02310   0.03900   0.00000  -0.00900   0.00000
C1295     0.08400   0.02250   0.04600   0.00000  -0.03100   0.00000
C1296     0.08800   0.02300   0.05200   0.00000   0.00900   0.00000
C1297     0.07600   0.01940   0.04700   0.00000   0.01000   0.00000
C1298     0.06200   0.02310   0.03900   0.00000   0.00900   0.00000
C1299     0.08400   0.02250   0.04600   0.00000   0.03100   0.00000
C1300     0.08800   0.02300   0.05200   0.00000  -0.00900   0.00000
N1301     0.02330   0.04710   0.03030  -0.00200  -0.00030   0.00130
N1302     0.02450   0.05650   0.03410  -0.00140   0.00040   0.00230
C1303     0.02400   0.07500   0.03410  -0.00840   0.00570   0.01140
C1305     0.02660   0.09300   0.03870   0.00000   0.00480   0.00300
C1307     0.02540   0.13000   0.04900   0.00200  -0.00310   0.02800
C1309     0.02480   0.15200   0.05000   0.00000  -0.00010   0.01500
N1311     0.02330   0.04710   0.03030  -0.00200   0.00030  -0.00130
N1312     0.02450   0.05650   0.03410  -0.00140  -0.00040  -0.00230
C1313     0.02400   0.07500   0.03410  -0.00840  -0.00570  -0.01140
C1315     0.02660   0.09300   0.03870   0.00000  -0.00480  -0.00300
C1317     0.02540   0.13000   0.04900   0.00200   0.00310  -0.02800
C1319     0.02480   0.15200   0.05000   0.00000   0.00010  -0.01500
N1321     0.04710   0.02330   0.03030   0.00200  -0.00130  -0.00030
N1322     0.05650   0.02450   0.03410   0.00140  -0.00230   0.00040
C1323     0.07500   0.02400   0.03410   0.00840  -0.01140   0.00570
C1325     0.09300   0.02660   0.03870   0.00000  -0.00300   0.00480
C1327     0.13000   0.02540   0.04900  -0.00200  -0.02800  -0.00310
C1329     0.15200   0.02480   0.05000   0.00000  -0.01500  -0.00010
N1331     0.04710   0.02330   0.03030   0.00200   0.00130   0.00030
N1332     0.05650   0.02450   0.03410   0.00140   0.00230  -0.00040
C1333     0.07500   0.02400   0.03410   0.00840   0.01140  -0.00570
C1335     0.09300   0.02660   0.03870   0.00000   0.00300  -0.00480
C1337     0.13000   0.02540   0.04900  -0.00200   0.02800   0.00310
C1339     0.15200   0.02480   0.05000   0.00000   0.01500   0.00010
N1341     0.02330   0.04710   0.03030   0.00200  -0.00030  -0.00130
N1342     0.02450   0.05650   0.03410   0.00140   0.00040  -0.00230
C1343     0.02400   0.07500   0.03410   0.00840   0.00570  -0.01140
C1345     0.02660   0.09300   0.03870   0.00000   0.00480  -0.00300
C1347     0.02540   0.13000   0.04900  -0.00200  -0.00310  -0.02800
C1349     0.02480   0.15200   0.05000   0.00000  -0.00010  -0.01500
N1351     0.02330   0.04710   0.03030   0.00200   0.00030   0.00130
N1352     0.02450   0.05650   0.03410   0.00140  -0.00040   0.00230
C1353     0.02400   0.07500   0.03410   0.00840  -0.00570   0.01140
C1355     0.02660   0.09300   0.03870   0.00000  -0.00480   0.00300
C1357     0.02540   0.13000   0.04900  -0.00200   0.00310   0.02800
C1359     0.02480   0.15200   0.05000   0.00000   0.00010   0.01500
N1361     0.04710   0.02330   0.03030  -0.00200  -0.00130   0.00030
N1362     0.05650   0.02450   0.03410  -0.00140  -0.00230  -0.00040
C1363     0.07500   0.02400   0.03410  -0.00840  -0.01140  -0.00570
C1365     0.09300   0.02660   0.03870   0.00000  -0.00300  -0.00480
C1367     0.13000   0.02540   0.04900   0.00200  -0.02800   0.00310
C1369     0.15200   0.02480   0.05000   0.00000  -0.01500   0.00010
N1371     0.04710   0.02330   0.03030  -0.00200   0.00130  -0.00030
N1372     0.05650   0.02450   0.03410  -0.00140   0.00230   0.00040
C1373     0.07500   0.02400   0.03410  -0.00840   0.01140   0.00570
C1375     0.09300   0.02660   0.03870   0.00000   0.00300   0.00480
C1377     0.13000   0.02540   0.04900   0.00200   0.02800  -0.00310
C1379     0.15200   0.02480   0.05000   0.00000   0.01500  -0.00010
Co1381    0.02490   0.02490   0.02650  -0.00028  -0.00071   0.00071
Co1382    0.02490   0.02490   0.02650  -0.00028   0.00071  -0.00071
Co1383    0.02490   0.02490   0.02650   0.00028  -0.00071  -0.00071
Co1384    0.02490   0.02490   0.02650   0.00028   0.00071   0.00071
C1385     0.01940   0.07600   0.04700   0.00000   0.00000   0.01000
C1386     0.02310   0.06200   0.03900   0.00000   0.00000   0.00900
C1387     0.02250   0.08400   0.04600   0.00000   0.00000   0.03100
C1388     0.02300   0.08800   0.05200   0.00000   0.00000  -0.00900
C1389     0.01940   0.07600   0.04700   0.00000   0.00000  -0.01000
C1390     0.02310   0.06200   0.03900   0.00000   0.00000  -0.00900
C1391     0.02250   0.08400   0.04600   0.00000   0.00000  -0.03100
C1392     0.02300   0.08800   0.05200   0.00000   0.00000   0.00900
C1393     0.07600   0.01940   0.04700   0.00000  -0.01000   0.00000
C1394     0.06200   0.02310   0.03900   0.00000  -0.00900   0.00000
C1395     0.08400   0.02250   0.04600   0.00000  -0.03100   0.00000
C1396     0.08800   0.02300   0.05200   0.00000   0.00900   0.00000
C1397     0.07600   0.01940   0.04700   0.00000   0.01000   0.00000
C1398     0.06200   0.02310   0.03900   0.00000   0.00900   0.00000
C1399     0.08400   0.02250   0.04600   0.00000   0.03100   0.00000
C1400     0.08800   0.02300   0.05200   0.00000  -0.00900   0.00000
N1401     0.02330   0.04710   0.03030  -0.00200  -0.00030   0.00130
N1402     0.02450   0.05650   0.03410  -0.00140   0.00040   0.00230
C1403     0.02400   0.07500   0.03410  -0.00840   0.00570   0.01140
C1405     0.02660   0.09300   0.03870   0.00000   0.00480   0.00300
C1407     0.02540   0.13000   0.04900   0.00200  -0.00310   0.02800
C1409     0.02480   0.15200   0.05000   0.00000  -0.00010   0.01500
N1411     0.02330   0.04710   0.03030  -0.00200   0.00030  -0.00130
N1412     0.02450   0.05650   0.03410  -0.00140  -0.00040  -0.00230
C1413     0.02400   0.07500   0.03410  -0.00840  -0.00570  -0.01140
C1415     0.02660   0.09300   0.03870   0.00000  -0.00480  -0.00300
C1417     0.02540   0.13000   0.04900   0.00200   0.00310  -0.02800
C1419     0.02480   0.15200   0.05000   0.00000   0.00010  -0.01500
N1421     0.04710   0.02330   0.03030   0.00200  -0.00130  -0.00030
N1422     0.05650   0.02450   0.03410   0.00140  -0.00230   0.00040
C1423     0.07500   0.02400   0.03410   0.00840  -0.01140   0.00570
C1425     0.09300   0.02660   0.03870   0.00000  -0.00300   0.00480
C1427     0.13000   0.02540   0.04900  -0.00200  -0.02800  -0.00310
C1429     0.15200   0.02480   0.05000   0.00000  -0.01500  -0.00010
N1431     0.04710   0.02330   0.03030   0.00200   0.00130   0.00030
N1432     0.05650   0.02450   0.03410   0.00140   0.00230  -0.00040
C1433     0.07500   0.02400   0.03410   0.00840   0.01140  -0.00570
C1435     0.09300   0.02660   0.03870   0.00000   0.00300  -0.00480
C1437     0.13000   0.02540   0.04900  -0.00200   0.02800   0.00310
C1439     0.15200   0.02480   0.05000   0.00000   0.01500   0.00010
N1441     0.02330   0.04710   0.03030   0.00200  -0.00030  -0.00130
N1442     0.02450   0.05650   0.03410   0.00140   0.00040  -0.00230
C1443     0.02400   0.07500   0.03410   0.00840   0.00570  -0.01140
C1445     0.02660   0.09300   0.03870   0.00000   0.00480  -0.00300
C1447     0.02540   0.13000   0.04900  -0.00200  -0.00310  -0.02800
C1449     0.02480   0.15200   0.05000   0.00000  -0.00010  -0.01500
N1451     0.02330   0.04710   0.03030   0.00200   0.00030   0.00130
N1452     0.02450   0.05650   0.03410   0.00140  -0.00040   0.00230
C1453     0.02400   0.07500   0.03410   0.00840  -0.00570   0.01140
C1455     0.02660   0.09300   0.03870   0.00000  -0.00480   0.00300
C1457     0.02540   0.13000   0.04900  -0.00200   0.00310   0.02800
C1459     0.02480   0.15200   0.05000   0.00000   0.00010   0.01500
N1461     0.04710   0.02330   0.03030  -0.00200  -0.00130   0.00030
N1462     0.05650   0.02450   0.03410  -0.00140  -0.00230  -0.00040
C1463     0.07500   0.02400   0.03410  -0.00840  -0.01140  -0.00570
C1465     0.09300   0.02660   0.03870   0.00000  -0.00300  -0.00480
C1467     0.13000   0.02540   0.04900   0.00200  -0.02800   0.00310
C1469     0.15200   0.02480   0.05000   0.00000  -0.01500   0.00010
N1471     0.04710   0.02330   0.03030  -0.00200   0.00130  -0.00030
N1472     0.05650   0.02450   0.03410  -0.00140   0.00230   0.00040
C1473     0.07500   0.02400   0.03410  -0.00840   0.01140   0.00570
C1475     0.09300   0.02660   0.03870   0.00000   0.00300   0.00480
C1477     0.13000   0.02540   0.04900   0.00200   0.02800  -0.00310
C1479     0.15200   0.02480   0.05000   0.00000   0.01500  -0.00010
Co1481    0.02490   0.02490   0.02650  -0.00028  -0.00071   0.00071
Co1482    0.02490   0.02490   0.02650  -0.00028   0.00071  -0.00071
Co1483    0.02490   0.02490   0.02650   0.00028  -0.00071  -0.00071
Co1484    0.02490   0.02490   0.02650   0.00028   0.00071   0.00071
C1485     0.01940   0.07600   0.04700   0.00000   0.00000   0.01000
C1486     0.02310   0.06200   0.03900   0.00000   0.00000   0.00900
C1487     0.02250   0.08400   0.04600   0.00000   0.00000   0.03100
C1488     0.02300   0.08800   0.05200   0.00000   0.00000  -0.00900
C1489     0.01940   0.07600   0.04700   0.00000   0.00000  -0.01000
C1490     0.02310   0.06200   0.03900   0.00000   0.00000  -0.00900
C1491     0.02250   0.08400   0.04600   0.00000   0.00000  -0.03100
C1492     0.02300   0.08800   0.05200   0.00000   0.00000   0.00900
C1493     0.07600   0.01940   0.04700   0.00000  -0.01000   0.00000
C1494     0.06200   0.02310   0.03900   0.00000  -0.00900   0.00000
C1495     0.08400   0.02250   0.04600   0.00000  -0.03100   0.00000
C1496     0.08800   0.02300   0.05200   0.00000   0.00900   0.00000
C1497     0.07600   0.01940   0.04700   0.00000   0.01000   0.00000
C1498     0.06200   0.02310   0.03900   0.00000   0.00900   0.00000
C1499     0.08400   0.02250   0.04600   0.00000   0.03100   0.00000
C1500     0.08800   0.02300   0.05200   0.00000  -0.00900   0.00000
N1501     0.02330   0.04710   0.03030  -0.00200  -0.00030   0.00130
N1502     0.02450   0.05650   0.03410  -0.00140   0.00040   0.00230
C1503     0.02400   0.07500   0.03410  -0.00840   0.00570   0.01140
C1505     0.02660   0.09300   0.03870   0.00000   0.00480   0.00300
C1507     0.02540   0.13000   0.04900   0.00200  -0.00310   0.02800
C1509     0.02480   0.15200   0.05000   0.00000  -0.00010   0.01500
N1511     0.02330   0.04710   0.03030  -0.00200   0.00030  -0.00130
N1512     0.02450   0.05650   0.03410  -0.00140  -0.00040  -0.00230
C1513     0.02400   0.07500   0.03410  -0.00840  -0.00570  -0.01140
C1515     0.02660   0.09300   0.03870   0.00000  -0.00480  -0.00300
C1517     0.02540   0.13000   0.04900   0.00200   0.00310  -0.02800
C1519     0.02480   0.15200   0.05000   0.00000   0.00010  -0.01500
N1521     0.04710   0.02330   0.03030   0.00200  -0.00130  -0.00030
N1522     0.05650   0.02450   0.03410   0.00140  -0.00230   0.00040
C1523     0.07500   0.02400   0.03410   0.00840  -0.01140   0.00570
C1525     0.09300   0.02660   0.03870   0.00000  -0.00300   0.00480
C1527     0.13000   0.02540   0.04900  -0.00200  -0.02800  -0.00310
C1529     0.15200   0.02480   0.05000   0.00000  -0.01500  -0.00010
N1531     0.04710   0.02330   0.03030   0.00200   0.00130   0.00030
N1532     0.05650   0.02450   0.03410   0.00140   0.00230  -0.00040
C1533     0.07500   0.02400   0.03410   0.00840   0.01140  -0.00570
C1535     0.09300   0.02660   0.03870   0.00000   0.00300  -0.00480
C1537     0.13000   0.02540   0.04900  -0.00200   0.02800   0.00310
C1539     0.15200   0.02480   0.05000   0.00000   0.01500   0.00010
N1541     0.02330   0.04710   0.03030   0.00200  -0.00030  -0.00130
N1542     0.02450   0.05650   0.03410   0.00140   0.00040  -0.00230
C1543     0.02400   0.07500   0.03410   0.00840   0.00570  -0.01140
C1545     0.02660   0.09300   0.03870   0.00000   0.00480  -0.00300
C1547     0.02540   0.13000   0.04900  -0.00200  -0.00310  -0.02800
C1549     0.02480   0.15200   0.05000   0.00000  -0.00010  -0.01500
N1551     0.02330   0.04710   0.03030   0.00200   0.00030   0.00130
N1552     0.02450   0.05650   0.03410   0.00140  -0.00040   0.00230
C1553     0.02400   0.07500   0.03410   0.00840  -0.00570   0.01140
C1555     0.02660   0.09300   0.03870   0.00000  -0.00480   0.00300
C1557     0.02540   0.13000   0.04900  -0.00200   0.00310   0.02800
C1559     0.02480   0.15200   0.05000   0.00000   0.00010   0.01500
N1561     0.04710   0.02330   0.03030  -0.00200  -0.00130   0.00030
N1562     0.05650   0.02450   0.03410  -0.00140  -0.00230  -0.00040
C1563     0.07500   0.02400   0.03410  -0.00840  -0.01140  -0.00570
C1565     0.09300   0.02660   0.03870   0.00000  -0.00300  -0.00480
C1567     0.13000   0.02540   0.04900   0.00200  -0.02800   0.00310
C1569     0.15200   0.02480   0.05000   0.00000  -0.01500   0.00010
N1571     0.04710   0.02330   0.03030  -0.00200   0.00130  -0.00030
N1572     0.05650   0.02450   0.03410  -0.00140   0.00230   0.00040
C1573     0.07500   0.02400   0.03410  -0.00840   0.01140   0.00570
C1575     0.09300   0.02660   0.03870   0.00000   0.00300   0.00480
C1577     0.13000   0.02540   0.04900   0.00200   0.02800  -0.00310
C1579     0.15200   0.02480   0.05000   0.00000   0.01500  -0.00010
Co1581    0.02490   0.02490   0.02650  -0.00028  -0.00071   0.00071
Co1582    0.02490   0.02490   0.02650  -0.00028   0.00071  -0.00071
Co1583    0.02490   0.02490   0.02650   0.00028  -0.00071  -0.00071
Co1584    0.02490   0.02490   0.02650   0.00028   0.00071   0.00071
C1585     0.01940   0.07600   0.04700   0.00000   0.00000   0.01000
C1586     0.02310   0.06200   0.03900   0.00000   0.00000   0.00900
C1587     0.02250   0.08400   0.04600   0.00000   0.00000   0.03100
C1588     0.02300   0.08800   0.05200   0.00000   0.00000  -0.00900
C1589     0.01940   0.07600   0.04700   0.00000   0.00000  -0.01000
C1590     0.02310   0.06200   0.03900   0.00000   0.00000  -0.00900
C1591     0.02250   0.08400   0.04600   0.00000   0.00000  -0.03100
C1592     0.02300   0.08800   0.05200   0.00000   0.00000   0.00900
C1593     0.07600   0.01940   0.04700   0.00000  -0.01000   0.00000
C1594     0.06200   0.02310   0.03900   0.00000  -0.00900   0.00000
C1595     0.08400   0.02250   0.04600   0.00000  -0.03100   0.00000
C1596     0.08800   0.02300   0.05200   0.00000   0.00900   0.00000
C1597     0.07600   0.01940   0.04700   0.00000   0.01000   0.00000
C1598     0.06200   0.02310   0.03900   0.00000   0.00900   0.00000
C1599     0.08400   0.02250   0.04600   0.00000   0.03100   0.00000
C1600     0.08800   0.02300   0.05200   0.00000  -0.00900   0.00000
N1601     0.02330   0.04710   0.03030  -0.00200  -0.00030   0.00130
N1602     0.02450   0.05650   0.03410  -0.00140   0.00040   0.00230
C1603     0.02400   0.07500   0.03410  -0.00840   0.00570   0.01140
C1605     0.02660   0.09300   0.03870   0.00000   0.00480   0.00300
C1607     0.02540   0.13000   0.04900   0.00200  -0.00310   0.02800
C1609     0.02480   0.15200   0.05000   0.00000  -0.00010   0.01500
N1611     0.02330   0.04710   0.03030  -0.00200   0.00030  -0.00130
N1612     0.02450   0.05650   0.03410  -0.00140  -0.00040  -0.00230
C1613     0.02400   0.07500   0.03410  -0.00840  -0.00570  -0.01140
C1615     0.02660   0.09300   0.03870   0.00000  -0.00480  -0.00300
C1617     0.02540   0.13000   0.04900   0.00200   0.00310  -0.02800
C1619     0.02480   0.15200   0.05000   0.00000   0.00010  -0.01500
N1621     0.04710   0.02330   0.03030   0.00200  -0.00130  -0.00030
N1622     0.05650   0.02450   0.03410   0.00140  -0.00230   0.00040
C1623     0.07500   0.02400   0.03410   0.00840  -0.01140   0.00570
C1625     0.09300   0.02660   0.03870   0.00000  -0.00300   0.00480
C1627     0.13000   0.02540   0.04900  -0.00200  -0.02800  -0.00310
C1629     0.15200   0.02480   0.05000   0.00000  -0.01500  -0.00010
N1631     0.04710   0.02330   0.03030   0.00200   0.00130   0.00030
N1632     0.05650   0.02450   0.03410   0.00140   0.00230  -0.00040
C1633     0.07500   0.02400   0.03410   0.00840   0.01140  -0.00570
C1635     0.09300   0.02660   0.03870   0.00000   0.00300  -0.00480
C1637     0.13000   0.02540   0.04900  -0.00200   0.02800   0.00310
C1639     0.15200   0.02480   0.05000   0.00000   0.01500   0.00010
N1641     0.02330   0.04710   0.03030   0.00200  -0.00030  -0.00130
N1642     0.02450   0.05650   0.03410   0.00140   0.00040  -0.00230
C1643     0.02400   0.07500   0.03410   0.00840   0.00570  -0.01140
C1645     0.02660   0.09300   0.03870   0.00000   0.00480  -0.00300
C1647     0.02540   0.13000   0.04900  -0.00200  -0.00310  -0.02800
C1649     0.02480   0.15200   0.05000   0.00000  -0.00010  -0.01500
N1651     0.02330   0.04710   0.03030   0.00200   0.00030   0.00130
N1652     0.02450   0.05650   0.03410   0.00140  -0.00040   0.00230
C1653     0.02400   0.07500   0.03410   0.00840  -0.00570   0.01140
C1655     0.02660   0.09300   0.03870   0.00000  -0.00480   0.00300
C1657     0.02540   0.13000   0.04900  -0.00200   0.00310   0.02800
C1659     0.02480   0.15200   0.05000   0.00000   0.00010   0.01500
N1661     0.04710   0.02330   0.03030  -0.00200  -0.00130   0.00030
N1662     0.05650   0.02450   0.03410  -0.00140  -0.00230  -0.00040
C1663     0.07500   0.02400   0.03410  -0.00840  -0.01140  -0.00570
C1665     0.09300   0.02660   0.03870   0.00000  -0.00300  -0.00480
C1667     0.13000   0.02540   0.04900   0.00200  -0.02800   0.00310
C1669     0.15200   0.02480   0.05000   0.00000  -0.01500   0.00010
N1671     0.04710   0.02330   0.03030  -0.00200   0.00130  -0.00030
N1672     0.05650   0.02450   0.03410  -0.00140   0.00230   0.00040
C1673     0.07500   0.02400   0.03410  -0.00840   0.01140   0.00570
C1675     0.09300   0.02660   0.03870   0.00000   0.00300   0.00480
C1677     0.13000   0.02540   0.04900   0.00200   0.02800  -0.00310
C1679     0.15200   0.02480   0.05000   0.00000   0.01500  -0.00010
Co1681    0.02490   0.02490   0.02650  -0.00028  -0.00071   0.00071
Co1682    0.02490   0.02490   0.02650  -0.00028   0.00071  -0.00071
Co1683    0.02490   0.02490   0.02650   0.00028  -0.00071  -0.00071
Co1684    0.02490   0.02490   0.02650   0.00028   0.00071   0.00071
C1685     0.01940   0.07600   0.04700   0.00000   0.00000   0.01000
C1686     0.02310   0.06200   0.03900   0.00000   0.00000   0.00900
C1687     0.02250   0.08400   0.04600   0.00000   0.00000   0.03100
C1688     0.02300   0.08800   0.05200   0.00000   0.00000  -0.00900
C1689     0.01940   0.07600   0.04700   0.00000   0.00000  -0.01000
C1690     0.02310   0.06200   0.03900   0.00000   0.00000  -0.00900
C1691     0.02250   0.08400   0.04600   0.00000   0.00000  -0.03100
C1692     0.02300   0.08800   0.05200   0.00000   0.00000   0.00900
C1693     0.07600   0.01940   0.04700   0.00000  -0.01000   0.00000
C1694     0.06200   0.02310   0.03900   0.00000  -0.00900   0.00000
C1695     0.08400   0.02250   0.04600   0.00000  -0.03100   0.00000
C1696     0.08800   0.02300   0.05200   0.00000   0.00900   0.00000
C1697     0.07600   0.01940   0.04700   0.00000   0.01000   0.00000
C1698     0.06200   0.02310   0.03900   0.00000   0.00900   0.00000
C1699     0.08400   0.02250   0.04600   0.00000   0.03100   0.00000
C1700     0.08800   0.02300   0.05200   0.00000  -0.00900   0.00000
N1701     0.02330   0.04710   0.03030  -0.00200  -0.00030   0.00130
N1702     0.02450   0.05650   0.03410  -0.00140   0.00040   0.00230
C1703     0.02400   0.07500   0.03410  -0.00840   0.00570   0.01140
C1705     0.02660   0.09300   0.03870   0.00000   0.00480   0.00300
C1707     0.02540   0.13000   0.04900   0.00200  -0.00310   0.02800
C1709     0.02480   0.15200   0.05000   0.00000  -0.00010   0.01500
N1711     0.02330   0.04710   0.03030  -0.00200   0.00030  -0.00130
N1712     0.02450   0.05650   0.03410  -0.00140  -0.00040  -0.00230
C1713     0.02400   0.07500   0.03410  -0.00840  -0.00570  -0.01140
C1715     0.02660   0.09300   0.03870   0.00000  -0.00480  -0.00300
C1717     0.02540   0.13000   0.04900   0.00200   0.00310  -0.02800
C1719     0.02480   0.15200   0.05000   0.00000   0.00010  -0.01500
N1721     0.04710   0.02330   0.03030   0.00200  -0.00130  -0.00030
N1722     0.05650   0.02450   0.03410   0.00140  -0.00230   0.00040
C1723     0.07500   0.02400   0.03410   0.00840  -0.01140   0.00570
C1725     0.09300   0.02660   0.03870   0.00000  -0.00300   0.00480
C1727     0.13000   0.02540   0.04900  -0.00200  -0.02800  -0.00310
C1729     0.15200   0.02480   0.05000   0.00000  -0.01500  -0.00010
N1731     0.04710   0.02330   0.03030   0.00200   0.00130   0.00030
N1732     0.05650   0.02450   0.03410   0.00140   0.00230  -0.00040
C1733     0.07500   0.02400   0.03410   0.00840   0.01140  -0.00570
C1735     0.09300   0.02660   0.03870   0.00000   0.00300  -0.00480
C1737     0.13000   0.02540   0.04900  -0.00200   0.02800   0.00310
C1739     0.15200   0.02480   0.05000   0.00000   0.01500   0.00010
N1741     0.02330   0.04710   0.03030   0.00200  -0.00030  -0.00130
N1742     0.02450   0.05650   0.03410   0.00140   0.00040  -0.00230
C1743     0.02400   0.07500   0.03410   0.00840   0.00570  -0.01140
C1745     0.02660   0.09300   0.03870   0.00000   0.00480  -0.00300
C1747     0.02540   0.13000   0.04900  -0.00200  -0.00310  -0.02800
C1749     0.02480   0.15200   0.05000   0.00000  -0.00010  -0.01500
N1751     0.02330   0.04710   0.03030   0.00200   0.00030   0.00130
N1752     0.02450   0.05650   0.03410   0.00140  -0.00040   0.00230
C1753     0.02400   0.07500   0.03410   0.00840  -0.00570   0.01140
C1755     0.02660   0.09300   0.03870   0.00000  -0.00480   0.00300
C1757     0.02540   0.13000   0.04900  -0.00200   0.00310   0.02800
C1759     0.02480   0.15200   0.05000   0.00000   0.00010   0.01500
N1761     0.04710   0.02330   0.03030  -0.00200  -0.00130   0.00030
N1762     0.05650   0.02450   0.03410  -0.00140  -0.00230  -0.00040
C1763     0.07500   0.02400   0.03410  -0.00840  -0.01140  -0.00570
C1765     0.09300   0.02660   0.03870   0.00000  -0.00300  -0.00480
C1767     0.13000   0.02540   0.04900   0.00200  -0.02800   0.00310
C1769     0.15200   0.02480   0.05000   0.00000  -0.01500   0.00010
N1771     0.04710   0.02330   0.03030  -0.00200   0.00130  -0.00030
N1772     0.05650   0.02450   0.03410  -0.00140   0.00230   0.00040
C1773     0.07500   0.02400   0.03410  -0.00840   0.01140   0.00570
C1775     0.09300   0.02660   0.03870   0.00000   0.00300   0.00480
C1777     0.13000   0.02540   0.04900   0.00200   0.02800  -0.00310
C1779     0.15200   0.02480   0.05000   0.00000   0.01500  -0.00010
Co1781    0.02490   0.02490   0.02650  -0.00028  -0.00071   0.00071
Co1782    0.02490   0.02490   0.02650  -0.00028   0.00071  -0.00071
Co1783    0.02490   0.02490   0.02650   0.00028  -0.00071  -0.00071
Co1784    0.02490   0.02490   0.02650   0.00028   0.00071   0.00071
C1785     0.01940   0.07600   0.04700   0.00000   0.00000   0.01000
C1786     0.02310   0.06200   0.03900   0.00000   0.00000   0.00900
C1787     0.02250   0.08400   0.04600   0.00000   0.00000   0.03100
C1788     0.02300   0.08800   0.05200   0.00000   0.00000  -0.00900
C1789     0.01940   0.07600   0.04700   0.00000   0.00000  -0.01000
C1790     0.02310   0.06200   0.03900   0.00000   0.00000  -0.00900
C1791     0.02250   0.08400   0.04600   0.00000   0.00000  -0.03100
C1792     0.02300   0.08800   0.05200   0.00000   0.00000   0.00900
C1793     0.07600   0.01940   0.04700   0.00000  -0.01000   0.00000
C1794     0.06200   0.02310   0.03900   0.00000  -0.00900   0.00000
C1795     0.08400   0.02250   0.04600   0.00000  -0.03100   0.00000
C1796     0.08800   0.02300   0.05200   0.00000   0.00900   0.00000
C1797     0.07600   0.01940   0.04700   0.00000   0.01000   0.00000
C1798     0.06200   0.02310   0.03900   0.00000   0.00900   0.00000
C1799     0.08400   0.02250   0.04600   0.00000   0.03100   0.00000
C1800     0.08800   0.02300   0.05200   0.00000  -0.00900   0.00000
N1801     0.02330   0.04710   0.03030  -0.00200  -0.00030   0.00130
N1802     0.02450   0.05650   0.03410  -0.00140   0.00040   0.00230
C1803     0.02400   0.07500   0.03410  -0.00840   0.00570   0.01140
C1805     0.02660   0.09300   0.03870   0.00000   0.00480   0.00300
C1807     0.02540   0.13000   0.04900   0.00200  -0.00310   0.02800
C1809     0.02480   0.15200   0.05000   0.00000  -0.00010   0.01500
N1811     0.02330   0.04710   0.03030  -0.00200   0.00030  -0.00130
N1812     0.02450   0.05650   0.03410  -0.00140  -0.00040  -0.00230
C1813     0.02400   0.07500   0.03410  -0.00840  -0.00570  -0.01140
C1815     0.02660   0.09300   0.03870   0.00000  -0.00480  -0.00300
C1817     0.02540   0.13000   0.04900   0.00200   0.00310  -0.02800
C1819     0.02480   0.15200   0.05000   0.00000   0.00010  -0.01500
N1821     0.04710   0.02330   0.03030   0.00200  -0.00130  -0.00030
N1822     0.05650   0.02450   0.03410   0.00140  -0.00230   0.00040
C1823     0.07500   0.02400   0.03410   0.00840  -0.01140   0.00570
C1825     0.09300   0.02660   0.03870   0.00000  -0.00300   0.00480
C1827     0.13000   0.02540   0.04900  -0.00200  -0.02800  -0.00310
C1829     0.15200   0.02480   0.05000   0.00000  -0.01500  -0.00010
N1831     0.04710   0.02330   0.03030   0.00200   0.00130   0.00030
N1832     0.05650   0.02450   0.03410   0.00140   0.00230  -0.00040
C1833     0.07500   0.02400   0.03410   0.00840   0.01140  -0.00570
C1835     0.09300   0.02660   0.03870   0.00000   0.00300  -0.00480
C1837     0.13000   0.02540   0.04900  -0.00200   0.02800   0.00310
C1839     0.15200   0.02480   0.05000   0.00000   0.01500   0.00010
N1841     0.02330   0.04710   0.03030   0.00200  -0.00030  -0.00130
N1842     0.02450   0.05650   0.03410   0.00140   0.00040  -0.00230
C1843     0.02400   0.07500   0.03410   0.00840   0.00570  -0.01140
C1845     0.02660   0.09300   0.03870   0.00000   0.00480  -0.00300
C1847     0.02540   0.13000   0.04900  -0.00200  -0.00310  -0.02800
C1849     0.02480   0.15200   0.05000   0.00000  -0.00010  -0.01500
N1851     0.02330   0.04710   0.03030   0.00200   0.00030   0.00130
N1852     0.02450   0.05650   0.03410   0.00140  -0.00040   0.00230
C1853     0.02400   0.07500   0.03410   0.00840  -0.00570   0.01140
C1855     0.02660   0.09300   0.03870   0.00000  -0.00480   0.00300
C1857     0.02540   0.13000   0.04900  -0.00200   0.00310   0.02800
C1859     0.02480   0.15200   0.05000   0.00000   0.00010   0.01500
N1861     0.04710   0.02330   0.03030  -0.00200  -0.00130   0.00030
N1862     0.05650   0.02450   0.03410  -0.00140  -0.00230  -0.00040
C1863     0.07500   0.02400   0.03410  -0.00840  -0.01140  -0.00570
C1865     0.09300   0.02660   0.03870   0.00000  -0.00300  -0.00480
C1867     0.13000   0.02540   0.04900   0.00200  -0.02800   0.00310
C1869     0.15200   0.02480   0.05000   0.00000  -0.01500   0.00010
N1871     0.04710   0.02330   0.03030  -0.00200   0.00130  -0.00030
N1872     0.05650   0.02450   0.03410  -0.00140   0.00230   0.00040
C1873     0.07500   0.02400   0.03410  -0.00840   0.01140   0.00570
C1875     0.09300   0.02660   0.03870   0.00000   0.00300   0.00480
C1877     0.13000   0.02540   0.04900   0.00200   0.02800  -0.00310
C1879     0.15200   0.02480   0.05000   0.00000   0.01500  -0.00010
Co1881    0.02490   0.02490   0.02650  -0.00028  -0.00071   0.00071
Co1882    0.02490   0.02490   0.02650  -0.00028   0.00071  -0.00071
Co1883    0.02490   0.02490   0.02650   0.00028  -0.00071  -0.00071
Co1884    0.02490   0.02490   0.02650   0.00028   0.00071   0.00071
C1885     0.01940   0.07600   0.04700   0.00000   0.00000   0.01000
C1886     0.02310   0.06200   0.03900   0.00000   0.00000   0.00900
C1887     0.02250   0.08400   0.04600   0.00000   0.00000   0.03100
C1888     0.02300   0.08800   0.05200   0.00000   0.00000  -0.00900
C1889     0.01940   0.07600   0.04700   0.00000   0.00000  -0.01000
C1890     0.02310   0.06200   0.03900   0.00000   0.00000  -0.00900
C1891     0.02250   0.08400   0.04600   0.00000   0.00000  -0.03100
C1892     0.02300   0.08800   0.05200   0.00000   0.00000   0.00900
C1893     0.07600   0.01940   0.04700   0.00000  -0.01000   0.00000
C1894     0.06200   0.02310   0.03900   0.00000  -0.00900   0.00000
C1895     0.08400   0.02250   0.04600   0.00000  -0.03100   0.00000
C1896     0.08800   0.02300   0.05200   0.00000   0.00900   0.00000
C1897     0.07600   0.01940   0.04700   0.00000   0.01000   0.00000
C1898     0.06200   0.02310   0.03900   0.00000   0.00900   0.00000
C1899     0.08400   0.02250   0.04600   0.00000   0.03100   0.00000
C1900     0.08800   0.02300   0.05200   0.00000  -0.00900   0.00000
N1901     0.02330   0.04710   0.03030  -0.00200  -0.00030   0.00130
N1902     0.02450   0.05650   0.03410  -0.00140   0.00040   0.00230
C1903     0.02400   0.07500   0.03410  -0.00840   0.00570   0.01140
C1905     0.02660   0.09300   0.03870   0.00000   0.00480   0.00300
C1907     0.02540   0.13000   0.04900   0.00200  -0.00310   0.02800
C1909     0.02480   0.15200   0.05000   0.00000  -0.00010   0.01500
N1911     0.02330   0.04710   0.03030  -0.00200   0.00030  -0.00130
N1912     0.02450   0.05650   0.03410  -0.00140  -0.00040  -0.00230
C1913     0.02400   0.07500   0.03410  -0.00840  -0.00570  -0.01140
C1915     0.02660   0.09300   0.03870   0.00000  -0.00480  -0.00300
C1917     0.02540   0.13000   0.04900   0.00200   0.00310  -0.02800
C1919     0.02480   0.15200   0.05000   0.00000   0.00010  -0.01500
N1921     0.04710   0.02330   0.03030   0.00200  -0.00130  -0.00030
N1922     0.05650   0.02450   0.03410   0.00140  -0.00230   0.00040
C1923     0.07500   0.02400   0.03410   0.00840  -0.01140   0.00570
C1925     0.09300   0.02660   0.03870   0.00000  -0.00300   0.00480
C1927     0.13000   0.02540   0.04900  -0.00200  -0.02800  -0.00310
C1929     0.15200   0.02480   0.05000   0.00000  -0.01500  -0.00010
N1931     0.04710   0.02330   0.03030   0.00200   0.00130   0.00030
N1932     0.05650   0.02450   0.03410   0.00140   0.00230  -0.00040
C1933     0.07500   0.02400   0.03410   0.00840   0.01140  -0.00570
C1935     0.09300   0.02660   0.03870   0.00000   0.00300  -0.00480
C1937     0.13000   0.02540   0.04900  -0.00200   0.02800   0.00310
C1939     0.15200   0.02480   0.05000   0.00000   0.01500   0.00010
N1941     0.02330   0.04710   0.03030   0.00200  -0.00030  -0.00130
N1942     0.02450   0.05650   0.03410   0.00140   0.00040  -0.00230
C1943     0.02400   0.07500   0.03410   0.00840   0.00570  -0.01140
C1945     0.02660   0.09300   0.03870   0.00000   0.00480  -0.00300
C1947     0.02540   0.13000   0.04900  -0.00200  -0.00310  -0.02800
C1949     0.02480   0.15200   0.05000   0.00000  -0.00010  -0.01500
N1951     0.02330   0.04710   0.03030   0.00200   0.00030   0.00130
N1952     0.02450   0.05650   0.03410   0.00140  -0.00040   0.00230
C1953     0.02400   0.07500   0.03410   0.00840  -0.00570   0.01140
C1955     0.02660   0.09300   0.03870   0.00000  -0.00480   0.00300
C1957     0.02540   0.13000   0.04900  -0.00200   0.00310   0.02800
C1959     0.02480   0.15200   0.05000   0.00000   0.00010   0.01500
N1961     0.04710   0.02330   0.03030  -0.00200  -0.00130   0.00030
N1962     0.05650   0.02450   0.03410  -0.00140  -0.00230  -0.00040
C1963     0.07500   0.02400   0.03410  -0.00840  -0.01140  -0.00570
C1965     0.09300   0.02660   0.03870   0.00000  -0.00300  -0.00480
C1967     0.13000   0.02540   0.04900   0.00200  -0.02800   0.00310
C1969     0.15200   0.02480   0.05000   0.00000  -0.01500   0.00010
N1971     0.04710   0.02330   0.03030  -0.00200   0.00130  -0.00030
N1972     0.05650   0.02450   0.03410  -0.00140   0.00230   0.00040
C1973     0.07500   0.02400   0.03410  -0.00840   0.01140   0.00570
C1975     0.09300   0.02660   0.03870   0.00000   0.00300   0.00480
C1977     0.13000   0.02540   0.04900   0.00200   0.02800  -0.00310
C1979     0.15200   0.02480   0.05000   0.00000   0.01500  -0.00010
Co1981    0.02490   0.02490   0.02650  -0.00028  -0.00071   0.00071
Co1982    0.02490   0.02490   0.02650  -0.00028   0.00071  -0.00071
Co1983    0.02490   0.02490   0.02650   0.00028  -0.00071  -0.00071
Co1984    0.02490   0.02490   0.02650   0.00028   0.00071   0.00071
C1985     0.01940   0.07600   0.04700   0.00000   0.00000   0.01000
C1986     0.02310   0.06200   0.03900   0.00000   0.00000   0.00900
C1987     0.02250   0.08400   0.04600   0.00000   0.00000   0.03100
C1988     0.02300   0.08800   0.05200   0.00000   0.00000  -0.00900
C1989     0.01940   0.07600   0.04700   0.00000   0.00000  -0.01000
C1990     0.02310   0.06200   0.03900   0.00000   0.00000  -0.00900
C1991     0.02250   0.08400   0.04600   0.00000   0.00000  -0.03100
C1992     0.02300   0.08800   0.05200   0.00000   0.00000   0.00900
C1993     0.07600   0.01940   0.04700   0.00000  -0.01000   0.00000
C1994     0.06200   0.02310   0.03900   0.00000  -0.00900   0.00000
C1995     0.08400   0.02250   0.04600   0.00000  -0.03100   0.00000
C1996     0.08800   0.02300   0.05200   0.00000   0.00900   0.00000
C1997     0.07600   0.01940   0.04700   0.00000   0.01000   0.00000
C1998     0.06200   0.02310   0.03900   0.00000   0.00900   0.00000
C1999     0.08400   0.02250   0.04600   0.00000   0.03100   0.00000
C2000     0.08800   0.02300   0.05200   0.00000  -0.00900   0.00000
N2001     0.02330   0.04710   0.03030  -0.00200  -0.00030   0.00130
N2002     0.02450   0.05650   0.03410  -0.00140   0.00040   0.00230
C2003     0.02400   0.07500   0.03410  -0.00840   0.00570   0.01140
C2005     0.02660   0.09300   0.03870   0.00000   0.00480   0.00300
C2007     0.02540   0.13000   0.04900   0.00200  -0.00310   0.02800
C2009     0.02480   0.15200   0.05000   0.00000  -0.00010   0.01500
N2011     0.02330   0.04710   0.03030  -0.00200   0.00030  -0.00130
N2012     0.02450   0.05650   0.03410  -0.00140  -0.00040  -0.00230
C2013     0.02400   0.07500   0.03410  -0.00840  -0.00570  -0.01140
C2015     0.02660   0.09300   0.03870   0.00000  -0.00480  -0.00300
C2017     0.02540   0.13000   0.04900   0.00200   0.00310  -0.02800
C2019     0.02480   0.15200   0.05000   0.00000   0.00010  -0.01500
N2021     0.04710   0.02330   0.03030   0.00200  -0.00130  -0.00030
N2022     0.05650   0.02450   0.03410   0.00140  -0.00230   0.00040
C2023     0.07500   0.02400   0.03410   0.00840  -0.01140   0.00570
C2025     0.09300   0.02660   0.03870   0.00000  -0.00300   0.00480
C2027     0.13000   0.02540   0.04900  -0.00200  -0.02800  -0.00310
C2029     0.15200   0.02480   0.05000   0.00000  -0.01500  -0.00010
N2031     0.04710   0.02330   0.03030   0.00200   0.00130   0.00030
N2032     0.05650   0.02450   0.03410   0.00140   0.00230  -0.00040
C2033     0.07500   0.02400   0.03410   0.00840   0.01140  -0.00570
C2035     0.09300   0.02660   0.03870   0.00000   0.00300  -0.00480
C2037     0.13000   0.02540   0.04900  -0.00200   0.02800   0.00310
C2039     0.15200   0.02480   0.05000   0.00000   0.01500   0.00010
N2041     0.02330   0.04710   0.03030   0.00200  -0.00030  -0.00130
N2042     0.02450   0.05650   0.03410   0.00140   0.00040  -0.00230
C2043     0.02400   0.07500   0.03410   0.00840   0.00570  -0.01140
C2045     0.02660   0.09300   0.03870   0.00000   0.00480  -0.00300
C2047     0.02540   0.13000   0.04900  -0.00200  -0.00310  -0.02800
C2049     0.02480   0.15200   0.05000   0.00000  -0.00010  -0.01500
N2051     0.02330   0.04710   0.03030   0.00200   0.00030   0.00130
N2052     0.02450   0.05650   0.03410   0.00140  -0.00040   0.00230
C2053     0.02400   0.07500   0.03410   0.00840  -0.00570   0.01140
C2055     0.02660   0.09300   0.03870   0.00000  -0.00480   0.00300
C2057     0.02540   0.13000   0.04900  -0.00200   0.00310   0.02800
C2059     0.02480   0.15200   0.05000   0.00000   0.00010   0.01500
N2061     0.04710   0.02330   0.03030  -0.00200  -0.00130   0.00030
N2062     0.05650   0.02450   0.03410  -0.00140  -0.00230  -0.00040
C2063     0.07500   0.02400   0.03410  -0.00840  -0.01140  -0.00570
C2065     0.09300   0.02660   0.03870   0.00000  -0.00300  -0.00480
C2067     0.13000   0.02540   0.04900   0.00200  -0.02800   0.00310
C2069     0.15200   0.02480   0.05000   0.00000  -0.01500   0.00010
N2071     0.04710   0.02330   0.03030  -0.00200   0.00130  -0.00030
N2072     0.05650   0.02450   0.03410  -0.00140   0.00230   0.00040
C2073     0.07500   0.02400   0.03410  -0.00840   0.01140   0.00570
C2075     0.09300   0.02660   0.03870   0.00000   0.00300   0.00480
C2077     0.13000   0.02540   0.04900   0.00200   0.02800  -0.00310
C2079     0.15200   0.02480   0.05000   0.00000   0.01500  -0.00010
Co2081    0.02490   0.02490   0.02650  -0.00028  -0.00071   0.00071
Co2082    0.02490   0.02490   0.02650  -0.00028   0.00071  -0.00071
Co2083    0.02490   0.02490   0.02650   0.00028  -0.00071  -0.00071
Co2084    0.02490   0.02490   0.02650   0.00028   0.00071   0.00071
C2085     0.01940   0.07600   0.04700   0.00000   0.00000   0.01000
C2086     0.02310   0.06200   0.03900   0.00000   0.00000   0.00900
C2087     0.02250   0.08400   0.04600   0.00000   0.00000   0.03100
C2088     0.02300   0.08800   0.05200   0.00000   0.00000  -0.00900
C2089     0.01940   0.07600   0.04700   0.00000   0.00000  -0.01000
C2090     0.02310   0.06200   0.03900   0.00000   0.00000  -0.00900
C2091     0.02250   0.08400   0.04600   0.00000   0.00000  -0.03100
C2092     0.02300   0.08800   0.05200   0.00000   0.00000   0.00900
C2093     0.07600   0.01940   0.04700   0.00000  -0.01000   0.00000
C2094     0.06200   0.02310   0.03900   0.00000  -0.00900   0.00000
C2095     0.08400   0.02250   0.04600   0.00000  -0.03100   0.00000
C2096     0.08800   0.02300   0.05200   0.00000   0.00900   0.00000
C2097     0.07600   0.01940   0.04700   0.00000   0.01000   0.00000
C2098     0.06200   0.02310   0.03900   0.00000   0.00900   0.00000
C2099     0.08400   0.02250   0.04600   0.00000   0.03100   0.00000
C2100     0.08800   0.02300   0.05200   0.00000  -0.00900   0.00000
N2101     0.02330   0.04710   0.03030  -0.00200  -0.00030   0.00130
N2102     0.02450   0.05650   0.03410  -0.00140   0.00040   0.00230
C2103     0.02400   0.07500   0.03410  -0.00840   0.00570   0.01140
C2105     0.02660   0.09300   0.03870   0.00000   0.00480   0.00300
C2107     0.02540   0.13000   0.04900   0.00200  -0.00310   0.02800
C2109     0.02480   0.15200   0.05000   0.00000  -0.00010   0.01500
N2111     0.02330   0.04710   0.03030  -0.00200   0.00030  -0.00130
N2112     0.02450   0.05650   0.03410  -0.00140  -0.00040  -0.00230
C2113     0.02400   0.07500   0.03410  -0.00840  -0.00570  -0.01140
C2115     0.02660   0.09300   0.03870   0.00000  -0.00480  -0.00300
C2117     0.02540   0.13000   0.04900   0.00200   0.00310  -0.02800
C2119     0.02480   0.15200   0.05000   0.00000   0.00010  -0.01500
N2121     0.04710   0.02330   0.03030   0.00200  -0.00130  -0.00030
N2122     0.05650   0.02450   0.03410   0.00140  -0.00230   0.00040
C2123     0.07500   0.02400   0.03410   0.00840  -0.01140   0.00570
C2125     0.09300   0.02660   0.03870   0.00000  -0.00300   0.00480
C2127     0.13000   0.02540   0.04900  -0.00200  -0.02800  -0.00310
C2129     0.15200   0.02480   0.05000   0.00000  -0.01500  -0.00010
N2131     0.04710   0.02330   0.03030   0.00200   0.00130   0.00030
N2132     0.05650   0.02450   0.03410   0.00140   0.00230  -0.00040
C2133     0.07500   0.02400   0.03410   0.00840   0.01140  -0.00570
C2135     0.09300   0.02660   0.03870   0.00000   0.00300  -0.00480
C2137     0.13000   0.02540   0.04900  -0.00200   0.02800   0.00310
C2139     0.15200   0.02480   0.05000   0.00000   0.01500   0.00010
N2141     0.02330   0.04710   0.03030   0.00200  -0.00030  -0.00130
N2142     0.02450   0.05650   0.03410   0.00140   0.00040  -0.00230
C2143     0.02400   0.07500   0.03410   0.00840   0.00570  -0.01140
C2145     0.02660   0.09300   0.03870   0.00000   0.00480  -0.00300
C2147     0.02540   0.13000   0.04900  -0.00200  -0.00310  -0.02800
C2149     0.02480   0.15200   0.05000   0.00000  -0.00010  -0.01500
N2151     0.02330   0.04710   0.03030   0.00200   0.00030   0.00130
N2152     0.02450   0.05650   0.03410   0.00140  -0.00040   0.00230
C2153     0.02400   0.07500   0.03410   0.00840  -0.00570   0.01140
C2155     0.02660   0.09300   0.03870   0.00000  -0.00480   0.00300
C2157     0.02540   0.13000   0.04900  -0.00200   0.00310   0.02800
C2159     0.02480   0.15200   0.05000   0.00000   0.00010   0.01500
N2161     0.04710   0.02330   0.03030  -0.00200  -0.00130   0.00030
N2162     0.05650   0.02450   0.03410  -0.00140  -0.00230  -0.00040
C2163     0.07500   0.02400   0.03410  -0.00840  -0.01140  -0.00570
C2165     0.09300   0.02660   0.03870   0.00000  -0.00300  -0.00480
C2167     0.13000   0.02540   0.04900   0.00200  -0.02800   0.00310
C2169     0.15200   0.02480   0.05000   0.00000  -0.01500   0.00010
N2171     0.04710   0.02330   0.03030  -0.00200   0.00130  -0.00030
N2172     0.05650   0.02450   0.03410  -0.00140   0.00230   0.00040
C2173     0.07500   0.02400   0.03410  -0.00840   0.01140   0.00570
C2175     0.09300   0.02660   0.03870   0.00000   0.00300   0.00480
C2177     0.13000   0.02540   0.04900   0.00200   0.02800  -0.00310
C2179     0.15200   0.02480   0.05000   0.00000   0.01500  -0.00010
Co2181    0.02490   0.02490   0.02650  -0.00028  -0.00071   0.00071
Co2182    0.02490   0.02490   0.02650  -0.00028   0.00071  -0.00071
Co2183    0.02490   0.02490   0.02650   0.00028  -0.00071  -0.00071
Co2184    0.02490   0.02490   0.02650   0.00028   0.00071   0.00071
C2185     0.01940   0.07600   0.04700   0.00000   0.00000   0.01000
C2186     0.02310   0.06200   0.03900   0.00000   0.00000   0.00900
C2187     0.02250   0.08400   0.04600   0.00000   0.00000   0.03100
C2188     0.02300   0.08800   0.05200   0.00000   0.00000  -0.00900
C2189     0.01940   0.07600   0.04700   0.00000   0.00000  -0.01000
C2190     0.02310   0.06200   0.03900   0.00000   0.00000  -0.00900
C2191     0.02250   0.08400   0.04600   0.00000   0.00000  -0.03100
C2192     0.02300   0.08800   0.05200   0.00000   0.00000   0.00900
C2193     0.07600   0.01940   0.04700   0.00000  -0.01000   0.00000
C2194     0.06200   0.02310   0.03900   0.00000  -0.00900   0.00000
C2195     0.08400   0.02250   0.04600   0.00000  -0.03100   0.00000
C2196     0.08800   0.02300   0.05200   0.00000   0.00900   0.00000
C2197     0.07600   0.01940   0.04700   0.00000   0.01000   0.00000
C2198     0.06200   0.02310   0.03900   0.00000   0.00900   0.00000
C2199     0.08400   0.02250   0.04600   0.00000   0.03100   0.00000
C2200     0.08800   0.02300   0.05200   0.00000  -0.00900   0.00000
N2201     0.02330   0.04710   0.03030  -0.00200  -0.00030   0.00130
N2202     0.02450   0.05650   0.03410  -0.00140   0.00040   0.00230
C2203     0.02400   0.07500   0.03410  -0.00840   0.00570   0.01140
C2205     0.02660   0.09300   0.03870   0.00000   0.00480   0.00300
C2207     0.02540   0.13000   0.04900   0.00200  -0.00310   0.02800
C2209     0.02480   0.15200   0.05000   0.00000  -0.00010   0.01500
N2211     0.02330   0.04710   0.03030  -0.00200   0.00030  -0.00130
N2212     0.02450   0.05650   0.03410  -0.00140  -0.00040  -0.00230
C2213     0.02400   0.07500   0.03410  -0.00840  -0.00570  -0.01140
C2215     0.02660   0.09300   0.03870   0.00000  -0.00480  -0.00300
C2217     0.02540   0.13000   0.04900   0.00200   0.00310  -0.02800
C2219     0.02480   0.15200   0.05000   0.00000   0.00010  -0.01500
N2221     0.04710   0.02330   0.03030   0.00200  -0.00130  -0.00030
N2222     0.05650   0.02450   0.03410   0.00140  -0.00230   0.00040
C2223     0.07500   0.02400   0.03410   0.00840  -0.01140   0.00570
C2225     0.09300   0.02660   0.03870   0.00000  -0.00300   0.00480
C2227     0.13000   0.02540   0.04900  -0.00200  -0.02800  -0.00310
C2229     0.15200   0.02480   0.05000   0.00000  -0.01500  -0.00010
N2231     0.04710   0.02330   0.03030   0.00200   0.00130   0.00030
N2232     0.05650   0.02450   0.03410   0.00140   0.00230  -0.00040
C2233     0.07500   0.02400   0.03410   0.00840   0.01140  -0.00570
C2235     0.09300   0.02660   0.03870   0.00000   0.00300  -0.00480
C2237     0.13000   0.02540   0.04900  -0.00200   0.02800   0.00310
C2239     0.15200   0.02480   0.05000   0.00000   0.01500   0.00010
N2241     0.02330   0.04710   0.03030   0.00200  -0.00030  -0.00130
N2242     0.02450   0.05650   0.03410   0.00140   0.00040  -0.00230
C2243     0.02400   0.07500   0.03410   0.00840   0.00570  -0.01140
C2245     0.02660   0.09300   0.03870   0.00000   0.00480  -0.00300
C2247     0.02540   0.13000   0.04900  -0.00200  -0.00310  -0.02800
C2249     0.02480   0.15200   0.05000   0.00000  -0.00010  -0.01500
N2251     0.02330   0.04710   0.03030   0.00200   0.00030   0.00130
N2252     0.02450   0.05650   0.03410   0.00140  -0.00040   0.00230
C2253     0.02400   0.07500   0.03410   0.00840  -0.00570   0.01140
C2255     0.02660   0.09300   0.03870   0.00000  -0.00480   0.00300
C2257     0.02540   0.13000   0.04900  -0.00200   0.00310   0.02800
C2259     0.02480   0.15200   0.05000   0.00000   0.00010   0.01500
N2261     0.04710   0.02330   0.03030  -0.00200  -0.00130   0.00030
N2262     0.05650   0.02450   0.03410  -0.00140  -0.00230  -0.00040
C2263     0.07500   0.02400   0.03410  -0.00840  -0.01140  -0.00570
C2265     0.09300   0.02660   0.03870   0.00000  -0.00300  -0.00480
C2267     0.13000   0.02540   0.04900   0.00200  -0.02800   0.00310
C2269     0.15200   0.02480   0.05000   0.00000  -0.01500   0.00010
N2271     0.04710   0.02330   0.03030  -0.00200   0.00130  -0.00030
N2272     0.05650   0.02450   0.03410  -0.00140   0.00230   0.00040
C2273     0.07500   0.02400   0.03410  -0.00840   0.01140   0.00570
C2275     0.09300   0.02660   0.03870   0.00000   0.00300   0.00480
C2277     0.13000   0.02540   0.04900   0.00200   0.02800  -0.00310
C2279     0.15200   0.02480   0.05000   0.00000   0.01500  -0.00010
Co2281    0.02490   0.02490   0.02650  -0.00028  -0.00071   0.00071
Co2282    0.02490   0.02490   0.02650  -0.00028   0.00071  -0.00071
Co2283    0.02490   0.02490   0.02650   0.00028  -0.00071  -0.00071
Co2284    0.02490   0.02490   0.02650   0.00028   0.00071   0.00071
C2285     0.01940   0.07600   0.04700   0.00000   0.00000   0.01000
C2286     0.02310   0.06200   0.03900   0.00000   0.00000   0.00900
C2287     0.02250   0.08400   0.04600   0.00000   0.00000   0.03100
C2288     0.02300   0.08800   0.05200   0.00000   0.00000  -0.00900
C2289     0.01940   0.07600   0.04700   0.00000   0.00000  -0.01000
C2290     0.02310   0.06200   0.03900   0.00000   0.00000  -0.00900
C2291     0.02250   0.08400   0.04600   0.00000   0.00000  -0.03100
C2292     0.02300   0.08800   0.05200   0.00000   0.00000   0.00900
C2293     0.07600   0.01940   0.04700   0.00000  -0.01000   0.00000
C2294     0.06200   0.02310   0.03900   0.00000  -0.00900   0.00000
C2295     0.08400   0.02250   0.04600   0.00000  -0.03100   0.00000
C2296     0.08800   0.02300   0.05200   0.00000   0.00900   0.00000
C2297     0.07600   0.01940   0.04700   0.00000   0.01000   0.00000
C2298     0.06200   0.02310   0.03900   0.00000   0.00900   0.00000
C2299     0.08400   0.02250   0.04600   0.00000   0.03100   0.00000
C2300     0.08800   0.02300   0.05200   0.00000  -0.00900   0.00000
N2301     0.02330   0.04710   0.03030  -0.00200  -0.00030   0.00130
N2302     0.02450   0.05650   0.03410  -0.00140   0.00040   0.00230
C2303     0.02400   0.07500   0.03410  -0.00840   0.00570   0.01140
C2305     0.02660   0.09300   0.03870   0.00000   0.00480   0.00300
C2307     0.02540   0.13000   0.04900   0.00200  -0.00310   0.02800
C2309     0.02480   0.15200   0.05000   0.00000  -0.00010   0.01500
N2311     0.02330   0.04710   0.03030  -0.00200   0.00030  -0.00130
N2312     0.02450   0.05650   0.03410  -0.00140  -0.00040  -0.00230
C2313     0.02400   0.07500   0.03410  -0.00840  -0.00570  -0.01140
C2315     0.02660   0.09300   0.03870   0.00000  -0.00480  -0.00300
C2317     0.02540   0.13000   0.04900   0.00200   0.00310  -0.02800
C2319     0.02480   0.15200   0.05000   0.00000   0.00010  -0.01500
N2321     0.04710   0.02330   0.03030   0.00200  -0.00130  -0.00030
N2322     0.05650   0.02450   0.03410   0.00140  -0.00230   0.00040
C2323     0.07500   0.02400   0.03410   0.00840  -0.01140   0.00570
C2325     0.09300   0.02660   0.03870   0.00000  -0.00300   0.00480
C2327     0.13000   0.02540   0.04900  -0.00200  -0.02800  -0.00310
C2329     0.15200   0.02480   0.05000   0.00000  -0.01500  -0.00010
N2331     0.04710   0.02330   0.03030   0.00200   0.00130   0.00030
N2332     0.05650   0.02450   0.03410   0.00140   0.00230  -0.00040
C2333     0.07500   0.02400   0.03410   0.00840   0.01140  -0.00570
C2335     0.09300   0.02660   0.03870   0.00000   0.00300  -0.00480
C2337     0.13000   0.02540   0.04900  -0.00200   0.02800   0.00310
C2339     0.15200   0.02480   0.05000   0.00000   0.01500   0.00010
N2341     0.02330   0.04710   0.03030   0.00200  -0.00030  -0.00130
N2342     0.02450   0.05650   0.03410   0.00140   0.00040  -0.00230
C2343     0.02400   0.07500   0.03410   0.00840   0.00570  -0.01140
C2345     0.02660   0.09300   0.03870   0.00000   0.00480  -0.00300
C2347     0.02540   0.13000   0.04900  -0.00200  -0.00310  -0.02800
C2349     0.02480   0.15200   0.05000   0.00000  -0.00010  -0.01500
N2351     0.02330   0.04710   0.03030   0.00200   0.00030   0.00130
N2352     0.02450   0.05650   0.03410   0.00140  -0.00040   0.00230
C2353     0.02400   0.07500   0.03410   0.00840  -0.00570   0.01140
C2355     0.02660   0.09300   0.03870   0.00000  -0.00480   0.00300
C2357     0.02540   0.13000   0.04900  -0.00200   0.00310   0.02800
C2359     0.02480   0.15200   0.05000   0.00000   0.00010   0.01500
N2361     0.04710   0.02330   0.03030  -0.00200  -0.00130   0.00030
N2362     0.05650   0.02450   0.03410  -0.00140  -0.00230  -0.00040
C2363     0.07500   0.02400   0.03410  -0.00840  -0.01140  -0.00570
C2365     0.09300   0.02660   0.03870   0.00000  -0.00300  -0.00480
C2367     0.13000   0.02540   0.04900   0.00200  -0.02800   0.00310
C2369     0.15200   0.02480   0.05000   0.00000  -0.01500   0.00010
N2371     0.04710   0.02330   0.03030  -0.00200   0.00130  -0.00030
N2372     0.05650   0.02450   0.03410  -0.00140   0.00230   0.00040
C2373     0.07500   0.02400   0.03410  -0.00840   0.01140   0.00570
C2375     0.09300   0.02660   0.03870   0.00000   0.00300   0.00480
C2377     0.13000   0.02540   0.04900   0.00200   0.02800  -0.00310
C2379     0.15200   0.02480   0.05000   0.00000   0.01500  -0.00010
Co2381    0.02490   0.02490   0.02650  -0.00028  -0.00071   0.00071
Co2382    0.02490   0.02490   0.02650  -0.00028   0.00071  -0.00071
Co2383    0.02490   0.02490   0.02650   0.00028  -0.00071  -0.00071
Co2384    0.02490   0.02490   0.02650   0.00028   0.00071   0.00071
C2385     0.01940   0.07600   0.04700   0.00000   0.00000   0.01000
C2386     0.02310   0.06200   0.03900   0.00000   0.00000   0.00900
C2387     0.02250   0.08400   0.04600   0.00000   0.00000   0.03100
C2388     0.02300   0.08800   0.05200   0.00000   0.00000  -0.00900
C2389     0.01940   0.07600   0.04700   0.00000   0.00000  -0.01000
C2390     0.02310   0.06200   0.03900   0.00000   0.00000  -0.00900
C2391     0.02250   0.08400   0.04600   0.00000   0.00000  -0.03100
C2392     0.02300   0.08800   0.05200   0.00000   0.00000   0.00900
C2393     0.07600   0.01940   0.04700   0.00000  -0.01000   0.00000
C2394     0.06200   0.02310   0.03900   0.00000  -0.00900   0.00000
C2395     0.08400   0.02250   0.04600   0.00000  -0.03100   0.00000
C2396     0.08800   0.02300   0.05200   0.00000   0.00900   0.00000
C2397     0.07600   0.01940   0.04700   0.00000   0.01000   0.00000
C2398     0.06200   0.02310   0.03900   0.00000   0.00900   0.00000
C2399     0.08400   0.02250   0.04600   0.00000   0.03100   0.00000
C2400     0.08800   0.02300   0.05200   0.00000  -0.00900   0.00000
N2401     0.02330   0.04710   0.03030  -0.00200  -0.00030   0.00130
N2402     0.02450   0.05650   0.03410  -0.00140   0.00040   0.00230
C2403     0.02400   0.07500   0.03410  -0.00840   0.00570   0.01140
C2405     0.02660   0.09300   0.03870   0.00000   0.00480   0.00300
C2407     0.02540   0.13000   0.04900   0.00200  -0.00310   0.02800
C2409     0.02480   0.15200   0.05000   0.00000  -0.00010   0.01500
N2411     0.02330   0.04710   0.03030  -0.00200   0.00030  -0.00130
N2412     0.02450   0.05650   0.03410  -0.00140  -0.00040  -0.00230
C2413     0.02400   0.07500   0.03410  -0.00840  -0.00570  -0.01140
C2415     0.02660   0.09300   0.03870   0.00000  -0.00480  -0.00300
C2417     0.02540   0.13000   0.04900   0.00200   0.00310  -0.02800
C2419     0.02480   0.15200   0.05000   0.00000   0.00010  -0.01500
N2421     0.04710   0.02330   0.03030   0.00200  -0.00130  -0.00030
N2422     0.05650   0.02450   0.03410   0.00140  -0.00230   0.00040
C2423     0.07500   0.02400   0.03410   0.00840  -0.01140   0.00570
C2425     0.09300   0.02660   0.03870   0.00000  -0.00300   0.00480
C2427     0.13000   0.02540   0.04900  -0.00200  -0.02800  -0.00310
C2429     0.15200   0.02480   0.05000   0.00000  -0.01500  -0.00010
N2431     0.04710   0.02330   0.03030   0.00200   0.00130   0.00030
N2432     0.05650   0.02450   0.03410   0.00140   0.00230  -0.00040
C2433     0.07500   0.02400   0.03410   0.00840   0.01140  -0.00570
C2435     0.09300   0.02660   0.03870   0.00000   0.00300  -0.00480
C2437     0.13000   0.02540   0.04900  -0.00200   0.02800   0.00310
C2439     0.15200   0.02480   0.05000   0.00000   0.01500   0.00010
N2441     0.02330   0.04710   0.03030   0.00200  -0.00030  -0.00130
N2442     0.02450   0.05650   0.03410   0.00140   0.00040  -0.00230
C2443     0.02400   0.07500   0.03410   0.00840   0.00570  -0.01140
C2445     0.02660   0.09300   0.03870   0.00000   0.00480  -0.00300
C2447     0.02540   0.13000   0.04900  -0.00200  -0.00310  -0.02800
C2449     0.02480   0.15200   0.05000   0.00000  -0.00010  -0.01500
N2451     0.02330   0.04710   0.03030   0.00200   0.00030   0.00130
N2452     0.02450   0.05650   0.03410   0.00140  -0.00040   0.00230
C2453     0.02400   0.07500   0.03410   0.00840  -0.00570   0.01140
C2455     0.02660   0.09300   0.03870   0.00000  -0.00480   0.00300
C2457     0.02540   0.13000   0.04900  -0.00200   0.00310   0.02800
C2459     0.02480   0.15200   0.05000   0.00000   0.00010   0.01500
N2461     0.04710   0.02330   0.03030  -0.00200  -0.00130   0.00030
N2462     0.05650   0.02450   0.03410  -0.00140  -0.00230  -0.00040
C2463     0.07500   0.02400   0.03410  -0.00840  -0.01140  -0.00570
C2465     0.09300   0.02660   0.03870   0.00000  -0.00300  -0.00480
C2467     0.13000   0.02540   0.04900   0.00200  -0.02800   0.00310
C2469     0.15200   0.02480   0.05000   0.00000  -0.01500   0.00010
N2471     0.04710   0.02330   0.03030  -0.00200   0.00130  -0.00030
N2472     0.05650   0.02450   0.03410  -0.00140   0.00230   0.00040
C2473     0.07500   0.02400   0.03410  -0.00840   0.01140   0.00570
C2475     0.09300   0.02660   0.03870   0.00000   0.00300   0.00480
C2477     0.13000   0.02540   0.04900   0.00200   0.02800  -0.00310
C2479     0.15200   0.02480   0.05000   0.00000   0.01500  -0.00010
Co2481    0.02490   0.02490   0.02650  -0.00028  -0.00071   0.00071
Co2482    0.02490   0.02490   0.02650  -0.00028   0.00071  -0.00071
Co2483    0.02490   0.02490   0.02650   0.00028  -0.00071  -0.00071
Co2484    0.02490   0.02490   0.02650   0.00028   0.00071   0.00071
C2485     0.01940   0.07600   0.04700   0.00000   0.00000   0.01000
C2486     0.02310   0.06200   0.03900   0.00000   0.00000   0.00900
C2487     0.02250   0.08400   0.04600   0.00000   0.00000   0.03100
C2488     0.02300   0.08800   0.05200   0.00000   0.00000  -0.00900
C2489     0.01940   0.07600   0.04700   0.00000   0.00000  -0.01000
C2490     0.02310   0.06200   0.03900   0.00000   0.00000  -0.00900
C2491     0.02250   0.08400   0.04600   0.00000   0.00000  -0.03100
C2492     0.02300   0.08800   0.05200   0.00000   0.00000   0.00900
C2493     0.07600   0.01940   0.04700   0.00000  -0.01000   0.00000
C2494     0.06200   0.02310   0.03900   0.00000  -0.00900   0.00000
C2495     0.08400   0.02250   0.04600   0.00000  -0.03100   0.00000
C2496     0.08800   0.02300   0.05200   0.00000   0.00900   0.00000
C2497     0.07600   0.01940   0.04700   0.00000   0.01000   0.00000
C2498     0.06200   0.02310   0.03900   0.00000   0.00900   0.00000
C2499     0.08400   0.02250   0.04600   0.00000   0.03100   0.00000
C2500     0.08800   0.02300   0.05200   0.00000  -0.00900   0.00000
N2501     0.02330   0.04710   0.03030  -0.00200  -0.00030   0.00130
N2502     0.02450   0.05650   0.03410  -0.00140   0.00040   0.00230
C2503     0.02400   0.07500   0.03410  -0.00840   0.00570   0.01140
C2505     0.02660   0.09300   0.03870   0.00000   0.00480   0.00300
C2507     0.02540   0.13000   0.04900   0.00200  -0.00310   0.02800
C2509     0.02480   0.15200   0.05000   0.00000  -0.00010   0.01500
N2511     0.02330   0.04710   0.03030  -0.00200   0.00030  -0.00130
N2512     0.02450   0.05650   0.03410  -0.00140  -0.00040  -0.00230
C2513     0.02400   0.07500   0.03410  -0.00840  -0.00570  -0.01140
C2515     0.02660   0.09300   0.03870   0.00000  -0.00480  -0.00300
C2517     0.02540   0.13000   0.04900   0.00200   0.00310  -0.02800
C2519     0.02480   0.15200   0.05000   0.00000   0.00010  -0.01500
N2521     0.04710   0.02330   0.03030   0.00200  -0.00130  -0.00030
N2522     0.05650   0.02450   0.03410   0.00140  -0.00230   0.00040
C2523     0.07500   0.02400   0.03410   0.00840  -0.01140   0.00570
C2525     0.09300   0.02660   0.03870   0.00000  -0.00300   0.00480
C2527     0.13000   0.02540   0.04900  -0.00200  -0.02800  -0.00310
C2529     0.15200   0.02480   0.05000   0.00000  -0.01500  -0.00010
N2531     0.04710   0.02330   0.03030   0.00200   0.00130   0.00030
N2532     0.05650   0.02450   0.03410   0.00140   0.00230  -0.00040
C2533     0.07500   0.02400   0.03410   0.00840   0.01140  -0.00570
C2535     0.09300   0.02660   0.03870   0.00000   0.00300  -0.00480
C2537     0.13000   0.02540   0.04900  -0.00200   0.02800   0.00310
C2539     0.15200   0.02480   0.05000   0.00000   0.01500   0.00010
N2541     0.02330   0.04710   0.03030   0.00200  -0.00030  -0.00130
N2542     0.02450   0.05650   0.03410   0.00140   0.00040  -0.00230
C2543     0.02400   0.07500   0.03410   0.00840   0.00570  -0.01140
C2545     0.02660   0.09300   0.03870   0.00000   0.00480  -0.00300
C2547     0.02540   0.13000   0.04900  -0.00200  -0.00310  -0.02800
C2549     0.02480   0.15200   0.05000   0.00000  -0.00010  -0.01500
N2551     0.02330   0.04710   0.03030   0.00200   0.00030   0.00130
N2552     0.02450   0.05650   0.03410   0.00140  -0.00040   0.00230
C2553     0.02400   0.07500   0.03410   0.00840  -0.00570   0.01140
C2555     0.02660   0.09300   0.03870   0.00000  -0.00480   0.00300
C2557     0.02540   0.13000   0.04900  -0.00200   0.00310   0.02800
C2559     0.02480   0.15200   0.05000   0.00000   0.00010   0.01500
N2561     0.04710   0.02330   0.03030  -0.00200  -0.00130   0.00030
N2562     0.05650   0.02450   0.03410  -0.00140  -0.00230  -0.00040
C2563     0.07500   0.02400   0.03410  -0.00840  -0.01140  -0.00570
C2565     0.09300   0.02660   0.03870   0.00000  -0.00300  -0.00480
C2567     0.13000   0.02540   0.04900   0.00200  -0.02800   0.00310
C2569     0.15200   0.02480   0.05000   0.00000  -0.01500   0.00010
N2571     0.04710   0.02330   0.03030  -0.00200   0.00130  -0.00030
N2572     0.05650   0.02450   0.03410  -0.00140   0.00230   0.00040
C2573     0.07500   0.02400   0.03410  -0.00840   0.01140   0.00570
C2575     0.09300   0.02660   0.03870   0.00000   0.00300   0.00480
C2577     0.13000   0.02540   0.04900   0.00200   0.02800  -0.00310
C2579     0.15200   0.02480   0.05000   0.00000   0.01500  -0.00010
Co2581    0.02490   0.02490   0.02650  -0.00028  -0.00071   0.00071
Co2582    0.02490   0.02490   0.02650  -0.00028   0.00071  -0.00071
Co2583    0.02490   0.02490   0.02650   0.00028  -0.00071  -0.00071
Co2584    0.02490   0.02490   0.02650   0.00028   0.00071   0.00071
C2585     0.01940   0.07600   0.04700   0.00000   0.00000   0.01000
C2586     0.02310   0.06200   0.03900   0.00000   0.00000   0.00900
C2587     0.02250   0.08400   0.04600   0.00000   0.00000   0.03100
C2588     0.02300   0.08800   0.05200   0.00000   0.00000  -0.00900
C2589     0.01940   0.07600   0.04700   0.00000   0.00000  -0.01000
C2590     0.02310   0.06200   0.03900   0.00000   0.00000  -0.00900
C2591     0.02250   0.08400   0.04600   0.00000   0.00000  -0.03100
C2592     0.02300   0.08800   0.05200   0.00000   0.00000   0.00900
C2593     0.07600   0.01940   0.04700   0.00000  -0.01000   0.00000
C2594     0.06200   0.02310   0.03900   0.00000  -0.00900   0.00000
C2595     0.08400   0.02250   0.04600   0.00000  -0.03100   0.00000
C2596     0.08800   0.02300   0.05200   0.00000   0.00900   0.00000
C2597     0.07600   0.01940   0.04700   0.00000   0.01000   0.00000
C2598     0.06200   0.02310   0.03900   0.00000   0.00900   0.00000
C2599     0.08400   0.02250   0.04600   0.00000   0.03100   0.00000
C2600     0.08800   0.02300   0.05200   0.00000  -0.00900   0.00000
N2601     0.02330   0.04710   0.03030  -0.00200  -0.00030   0.00130
N2602     0.02450   0.05650   0.03410  -0.00140   0.00040   0.00230
C2603     0.02400   0.07500   0.03410  -0.00840   0.00570   0.01140
C2605     0.02660   0.09300   0.03870   0.00000   0.00480   0.00300
C2607     0.02540   0.13000   0.04900   0.00200  -0.00310   0.02800
C2609     0.02480   0.15200   0.05000   0.00000  -0.00010   0.01500
N2611     0.02330   0.04710   0.03030  -0.00200   0.00030  -0.00130
N2612     0.02450   0.05650   0.03410  -0.00140  -0.00040  -0.00230
C2613     0.02400   0.07500   0.03410  -0.00840  -0.00570  -0.01140
C2615     0.02660   0.09300   0.03870   0.00000  -0.00480  -0.00300
C2617     0.02540   0.13000   0.04900   0.00200   0.00310  -0.02800
C2619     0.02480   0.15200   0.05000   0.00000   0.00010  -0.01500
N2621     0.04710   0.02330   0.03030   0.00200  -0.00130  -0.00030
N2622     0.05650   0.02450   0.03410   0.00140  -0.00230   0.00040
C2623     0.07500   0.02400   0.03410   0.00840  -0.01140   0.00570
C2625     0.09300   0.02660   0.03870   0.00000  -0.00300   0.00480
C2627     0.13000   0.02540   0.04900  -0.00200  -0.02800  -0.00310
C2629     0.15200   0.02480   0.05000   0.00000  -0.01500  -0.00010
N2631     0.04710   0.02330   0.03030   0.00200   0.00130   0.00030
N2632     0.05650   0.02450   0.03410   0.00140   0.00230  -0.00040
C2633     0.07500   0.02400   0.03410   0.00840   0.01140  -0.00570
C2635     0.09300   0.02660   0.03870   0.00000   0.00300  -0.00480
C2637     0.13000   0.02540   0.04900  -0.00200   0.02800   0.00310
C2639     0.15200   0.02480   0.05000   0.00000   0.01500   0.00010
N2641     0.02330   0.04710   0.03030   0.00200  -0.00030  -0.00130
N2642     0.02450   0.05650   0.03410   0.00140   0.00040  -0.00230
C2643     0.02400   0.07500   0.03410   0.00840   0.00570  -0.01140
C2645     0.02660   0.09300   0.03870   0.00000   0.00480  -0.00300
C2647     0.02540   0.13000   0.04900  -0.00200  -0.00310  -0.02800
C2649     0.02480   0.15200   0.05000   0.00000  -0.00010  -0.01500
N2651     0.02330   0.04710   0.03030   0.00200   0.00030   0.00130
N2652     0.02450   0.05650   0.03410   0.00140  -0.00040   0.00230
C2653     0.02400   0.07500   0.03410   0.00840  -0.00570   0.01140
C2655     0.02660   0.09300   0.03870   0.00000  -0.00480   0.00300
C2657     0.02540   0.13000   0.04900  -0.00200   0.00310   0.02800
C2659     0.02480   0.15200   0.05000   0.00000   0.00010   0.01500
N2661     0.04710   0.02330   0.03030  -0.00200  -0.00130   0.00030
N2662     0.05650   0.02450   0.03410  -0.00140  -0.00230  -0.00040
C2663     0.07500   0.02400   0.03410  -0.00840  -0.01140  -0.00570
C2665     0.09300   0.02660   0.03870   0.00000  -0.00300  -0.00480
C2667     0.13000   0.02540   0.04900   0.00200  -0.02800   0.00310
C2669     0.15200   0.02480   0.05000   0.00000  -0.01500   0.00010
N2671     0.04710   0.02330   0.03030  -0.00200   0.00130  -0.00030
N2672     0.05650   0.02450   0.03410  -0.00140   0.00230   0.00040
C2673     0.07500   0.02400   0.03410  -0.00840   0.01140   0.00570
C2675     0.09300   0.02660   0.03870   0.00000   0.00300   0.00480
C2677     0.13000   0.02540   0.04900   0.00200   0.02800  -0.00310
C2679     0.15200   0.02480   0.05000   0.00000   0.01500  -0.00010
Co2681    0.02490   0.02490   0.02650  -0.00028  -0.00071   0.00071
Co2682    0.02490   0.02490   0.02650  -0.00028   0.00071  -0.00071
Co2683    0.02490   0.02490   0.02650   0.00028  -0.00071  -0.00071
Co2684    0.02490   0.02490   0.02650   0.00028   0.00071   0.00071
C2685     0.01940   0.07600   0.04700   0.00000   0.00000   0.01000
C2686     0.02310   0.06200   0.03900   0.00000   0.00000   0.00900
C2687     0.02250   0.08400   0.04600   0.00000   0.00000   0.03100
C2688     0.02300   0.08800   0.05200   0.00000   0.00000  -0.00900
C2689     0.01940   0.07600   0.04700   0.00000   0.00000  -0.01000
C2690     0.02310   0.06200   0.03900   0.00000   0.00000  -0.00900
C2691     0.02250   0.08400   0.04600   0.00000   0.00000  -0.03100
C2692     0.02300   0.08800   0.05200   0.00000   0.00000   0.00900
C2693     0.07600   0.01940   0.04700   0.00000  -0.01000   0.00000
C2694     0.06200   0.02310   0.03900   0.00000  -0.00900   0.00000
C2695     0.08400   0.02250   0.04600   0.00000  -0.03100   0.00000
C2696     0.08800   0.02300   0.05200   0.00000   0.00900   0.00000
C2697     0.07600   0.01940   0.04700   0.00000   0.01000   0.00000
C2698     0.06200   0.02310   0.03900   0.00000   0.00900   0.00000
C2699     0.08400   0.02250   0.04600   0.00000   0.03100   0.00000
C2700     0.08800   0.02300   0.05200   0.00000  -0.00900   0.00000
N2701     0.02330   0.04710   0.03030  -0.00200  -0.00030   0.00130
N2702     0.02450   0.05650   0.03410  -0.00140   0.00040   0.00230
C2703     0.02400   0.07500   0.03410  -0.00840   0.00570   0.01140
C2705     0.02660   0.09300   0.03870   0.00000   0.00480   0.00300
C2707     0.02540   0.13000   0.04900   0.00200  -0.00310   0.02800
C2709     0.02480   0.15200   0.05000   0.00000  -0.00010   0.01500
N2711     0.02330   0.04710   0.03030  -0.00200   0.00030  -0.00130
N2712     0.02450   0.05650   0.03410  -0.00140  -0.00040  -0.00230
C2713     0.02400   0.07500   0.03410  -0.00840  -0.00570  -0.01140
C2715     0.02660   0.09300   0.03870   0.00000  -0.00480  -0.00300
C2717     0.02540   0.13000   0.04900   0.00200   0.00310  -0.02800
C2719     0.02480   0.15200   0.05000   0.00000   0.00010  -0.01500
N2721     0.04710   0.02330   0.03030   0.00200  -0.00130  -0.00030
N2722     0.05650   0.02450   0.03410   0.00140  -0.00230   0.00040
C2723     0.07500   0.02400   0.03410   0.00840  -0.01140   0.00570
C2725     0.09300   0.02660   0.03870   0.00000  -0.00300   0.00480
C2727     0.13000   0.02540   0.04900  -0.00200  -0.02800  -0.00310
C2729     0.15200   0.02480   0.05000   0.00000  -0.01500  -0.00010
N2731     0.04710   0.02330   0.03030   0.00200   0.00130   0.00030
N2732     0.05650   0.02450   0.03410   0.00140   0.00230  -0.00040
C2733     0.07500   0.02400   0.03410   0.00840   0.01140  -0.00570
C2735     0.09300   0.02660   0.03870   0.00000   0.00300  -0.00480
C2737     0.13000   0.02540   0.04900  -0.00200   0.02800   0.00310
C2739     0.15200   0.02480   0.05000   0.00000   0.01500   0.00010
N2741     0.02330   0.04710   0.03030   0.00200  -0.00030  -0.00130
N2742     0.02450   0.05650   0.03410   0.00140   0.00040  -0.00230
C2743     0.02400   0.07500   0.03410   0.00840   0.00570  -0.01140
C2745     0.02660   0.09300   0.03870   0.00000   0.00480  -0.00300
C2747     0.02540   0.13000   0.04900  -0.00200  -0.00310  -0.02800
C2749     0.02480   0.15200   0.05000   0.00000  -0.00010  -0.01500
N2751     0.02330   0.04710   0.03030   0.00200   0.00030   0.00130
N2752     0.02450   0.05650   0.03410   0.00140  -0.00040   0.00230
C2753     0.02400   0.07500   0.03410   0.00840  -0.00570   0.01140
C2755     0.02660   0.09300   0.03870   0.00000  -0.00480   0.00300
C2757     0.02540   0.13000   0.04900  -0.00200   0.00310   0.02800
C2759     0.02480   0.15200   0.05000   0.00000   0.00010   0.01500
N2761     0.04710   0.02330   0.03030  -0.00200  -0.00130   0.00030
N2762     0.05650   0.02450   0.03410  -0.00140  -0.00230  -0.00040
C2763     0.07500   0.02400   0.03410  -0.00840  -0.01140  -0.00570
C2765     0.09300   0.02660   0.03870   0.00000  -0.00300  -0.00480
C2767     0.13000   0.02540   0.04900   0.00200  -0.02800   0.00310
C2769     0.15200   0.02480   0.05000   0.00000  -0.01500   0.00010
N2771     0.04710   0.02330   0.03030  -0.00200   0.00130  -0.00030
N2772     0.05650   0.02450   0.03410  -0.00140   0.00230   0.00040
C2773     0.07500   0.02400   0.03410  -0.00840   0.01140   0.00570
C2775     0.09300   0.02660   0.03870   0.00000   0.00300   0.00480
C2777     0.13000   0.02540   0.04900   0.00200   0.02800  -0.00310
C2779     0.15200   0.02480   0.05000   0.00000   0.01500  -0.00010
Co2781    0.02490   0.02490   0.02650  -0.00028  -0.00071   0.00071
Co2782    0.02490   0.02490   0.02650  -0.00028   0.00071  -0.00071
Co2783    0.02490   0.02490   0.02650   0.00028  -0.00071  -0.00071
Co2784    0.02490   0.02490   0.02650   0.00028   0.00071   0.00071
C2785     0.01940   0.07600   0.04700   0.00000   0.00000   0.01000
C2786     0.02310   0.06200   0.03900   0.00000   0.00000   0.00900
C2787     0.02250   0.08400   0.04600   0.00000   0.00000   0.03100
C2788     0.02300   0.08800   0.05200   0.00000   0.00000  -0.00900
C2789     0.01940   0.07600   0.04700   0.00000   0.00000  -0.01000
C2790     0.02310   0.06200   0.03900   0.00000   0.00000  -0.00900
C2791     0.02250   0.08400   0.04600   0.00000   0.00000  -0.03100
C2792     0.02300   0.08800   0.05200   0.00000   0.00000   0.00900
C2793     0.07600   0.01940   0.04700   0.00000  -0.01000   0.00000
C2794     0.06200   0.02310   0.03900   0.00000  -0.00900   0.00000
C2795     0.08400   0.02250   0.04600   0.00000  -0.03100   0.00000
C2796     0.08800   0.02300   0.05200   0.00000   0.00900   0.00000
C2797     0.07600   0.01940   0.04700   0.00000   0.01000   0.00000
C2798     0.06200   0.02310   0.03900   0.00000   0.00900   0.00000
C2799     0.08400   0.02250   0.04600   0.00000   0.03100   0.00000
C2800     0.08800   0.02300   0.05200   0.00000  -0.00900   0.00000
N2801     0.02330   0.04710   0.03030  -0.00200  -0.00030   0.00130
N2802     0.02450   0.05650   0.03410  -0.00140   0.00040   0.00230
C2803     0.02400   0.07500   0.03410  -0.00840   0.00570   0.01140
C2805     0.02660   0.09300   0.03870   0.00000   0.00480   0.00300
C2807     0.02540   0.13000   0.04900   0.00200  -0.00310   0.02800
C2809     0.02480   0.15200   0.05000   0.00000  -0.00010   0.01500
N2811     0.02330   0.04710   0.03030  -0.00200   0.00030  -0.00130
N2812     0.02450   0.05650   0.03410  -0.00140  -0.00040  -0.00230
C2813     0.02400   0.07500   0.03410  -0.00840  -0.00570  -0.01140
C2815     0.02660   0.09300   0.03870   0.00000  -0.00480  -0.00300
C2817     0.02540   0.13000   0.04900   0.00200   0.00310  -0.02800
C2819     0.02480   0.15200   0.05000   0.00000   0.00010  -0.01500
N2821     0.04710   0.02330   0.03030   0.00200  -0.00130  -0.00030
N2822     0.05650   0.02450   0.03410   0.00140  -0.00230   0.00040
C2823     0.07500   0.02400   0.03410   0.00840  -0.01140   0.00570
C2825     0.09300   0.02660   0.03870   0.00000  -0.00300   0.00480
C2827     0.13000   0.02540   0.04900  -0.00200  -0.02800  -0.00310
C2829     0.15200   0.02480   0.05000   0.00000  -0.01500  -0.00010
N2831     0.04710   0.02330   0.03030   0.00200   0.00130   0.00030
N2832     0.05650   0.02450   0.03410   0.00140   0.00230  -0.00040
C2833     0.07500   0.02400   0.03410   0.00840   0.01140  -0.00570
C2835     0.09300   0.02660   0.03870   0.00000   0.00300  -0.00480
C2837     0.13000   0.02540   0.04900  -0.00200   0.02800   0.00310
C2839     0.15200   0.02480   0.05000   0.00000   0.01500   0.00010
N2841     0.02330   0.04710   0.03030   0.00200  -0.00030  -0.00130
N2842     0.02450   0.05650   0.03410   0.00140   0.00040  -0.00230
C2843     0.02400   0.07500   0.03410   0.00840   0.00570  -0.01140
C2845     0.02660   0.09300   0.03870   0.00000   0.00480  -0.00300
C2847     0.02540   0.13000   0.04900  -0.00200  -0.00310  -0.02800
C2849     0.02480   0.15200   0.05000   0.00000  -0.00010  -0.01500
N2851     0.02330   0.04710   0.03030   0.00200   0.00030   0.00130
N2852     0.02450   0.05650   0.03410   0.00140  -0.00040   0.00230
C2853     0.02400   0.07500   0.03410   0.00840  -0.00570   0.01140
C2855     0.02660   0.09300   0.03870   0.00000  -0.00480   0.00300
C2857     0.02540   0.13000   0.04900  -0.00200   0.00310   0.02800
C2859     0.02480   0.15200   0.05000   0.00000   0.00010   0.01500
N2861     0.04710   0.02330   0.03030  -0.00200  -0.00130   0.00030
N2862     0.05650   0.02450   0.03410  -0.00140  -0.00230  -0.00040
C2863     0.07500   0.02400   0.03410  -0.00840  -0.01140  -0.00570
C2865     0.09300   0.02660   0.03870   0.00000  -0.00300  -0.00480
C2867     0.13000   0.02540   0.04900   0.00200  -0.02800   0.00310
C2869     0.15200   0.02480   0.05000   0.00000  -0.01500   0.00010
N2871     0.04710   0.02330   0.03030  -0.00200   0.00130  -0.00030
N2872     0.05650   0.02450   0.03410  -0.00140   0.00230   0.00040
C2873     0.07500   0.02400   0.03410  -0.00840   0.01140   0.00570
C2875     0.09300   0.02660   0.03870   0.00000   0.00300   0.00480
C2877     0.13000   0.02540   0.04900   0.00200   0.02800  -0.00310
C2879     0.15200   0.02480   0.05000   0.00000   0.01500  -0.00010
Co2881    0.02490   0.02490   0.02650  -0.00028  -0.00071   0.00071
Co2882    0.02490   0.02490   0.02650  -0.00028   0.00071  -0.00071
Co2883    0.02490   0.02490   0.02650   0.00028  -0.00071  -0.00071
Co2884    0.02490   0.02490   0.02650   0.00028   0.00071   0.00071
C2885     0.01940   0.07600   0.04700   0.00000   0.00000   0.01000
C2886     0.02310   0.06200   0.03900   0.00000   0.00000   0.00900
C2887     0.02250   0.08400   0.04600   0.00000   0.00000   0.03100
C2888     0.02300   0.08800   0.05200   0.00000   0.00000  -0.00900
C2889     0.01940   0.07600   0.04700   0.00000   0.00000  -0.01000
C2890     0.02310   0.06200   0.03900   0.00000   0.00000  -0.00900
C2891     0.02250   0.08400   0.04600   0.00000   0.00000  -0.03100
C2892     0.02300   0.08800   0.05200   0.00000   0.00000   0.00900
C2893     0.07600   0.01940   0.04700   0.00000  -0.01000   0.00000
C2894     0.06200   0.02310   0.03900   0.00000  -0.00900   0.00000
C2895     0.08400   0.02250   0.04600   0.00000  -0.03100   0.00000
C2896     0.08800   0.02300   0.05200   0.00000   0.00900   0.00000
C2897     0.07600   0.01940   0.04700   0.00000   0.01000   0.00000
C2898     0.06200   0.02310   0.03900   0.00000   0.00900   0.00000
C2899     0.08400   0.02250   0.04600   0.00000   0.03100   0.00000
C2900     0.08800   0.02300   0.05200   0.00000  -0.00900   0.00000
N2901     0.02330   0.04710   0.03030  -0.00200  -0.00030   0.00130
N2902     0.02450   0.05650   0.03410  -0.00140   0.00040   0.00230
C2903     0.02400   0.07500   0.03410  -0.00840   0.00570   0.01140
C2905     0.02660   0.09300   0.03870   0.00000   0.00480   0.00300
C2907     0.02540   0.13000   0.04900   0.00200  -0.00310   0.02800
C2909     0.02480   0.15200   0.05000   0.00000  -0.00010   0.01500
N2911     0.02330   0.04710   0.03030  -0.00200   0.00030  -0.00130
N2912     0.02450   0.05650   0.03410  -0.00140  -0.00040  -0.00230
C2913     0.02400   0.07500   0.03410  -0.00840  -0.00570  -0.01140
C2915     0.02660   0.09300   0.03870   0.00000  -0.00480  -0.00300
C2917     0.02540   0.13000   0.04900   0.00200   0.00310  -0.02800
C2919     0.02480   0.15200   0.05000   0.00000   0.00010  -0.01500
N2921     0.04710   0.02330   0.03030   0.00200  -0.00130  -0.00030
N2922     0.05650   0.02450   0.03410   0.00140  -0.00230   0.00040
C2923     0.07500   0.02400   0.03410   0.00840  -0.01140   0.00570
C2925     0.09300   0.02660   0.03870   0.00000  -0.00300   0.00480
C2927     0.13000   0.02540   0.04900  -0.00200  -0.02800  -0.00310
C2929     0.15200   0.02480   0.05000   0.00000  -0.01500  -0.00010
N2931     0.04710   0.02330   0.03030   0.00200   0.00130   0.00030
N2932     0.05650   0.02450   0.03410   0.00140   0.00230  -0.00040
C2933     0.07500   0.02400   0.03410   0.00840   0.01140  -0.00570
C2935     0.09300   0.02660   0.03870   0.00000   0.00300  -0.00480
C2937     0.13000   0.02540   0.04900  -0.00200   0.02800   0.00310
C2939     0.15200   0.02480   0.05000   0.00000   0.01500   0.00010
N2941     0.02330   0.04710   0.03030   0.00200  -0.00030  -0.00130
N2942     0.02450   0.05650   0.03410   0.00140   0.00040  -0.00230
C2943     0.02400   0.07500   0.03410   0.00840   0.00570  -0.01140
C2945     0.02660   0.09300   0.03870   0.00000   0.00480  -0.00300
C2947     0.02540   0.13000   0.04900  -0.00200  -0.00310  -0.02800
C2949     0.02480   0.15200   0.05000   0.00000  -0.00010  -0.01500
N2951     0.02330   0.04710   0.03030   0.00200   0.00030   0.00130
N2952     0.02450   0.05650   0.03410   0.00140  -0.00040   0.00230
C2953     0.02400   0.07500   0.03410   0.00840  -0.00570   0.01140
C2955     0.02660   0.09300   0.03870   0.00000  -0.00480   0.00300
C2957     0.02540   0.13000   0.04900  -0.00200   0.00310   0.02800
C2959     0.02480   0.15200   0.05000   0.00000   0.00010   0.01500
N2961     0.04710   0.02330   0.03030  -0.00200  -0.00130   0.00030
N2962     0.05650   0.02450   0.03410  -0.00140  -0.00230  -0.00040
C2963     0.07500   0.02400   0.03410  -0.00840  -0.01140  -0.00570
C2965     0.09300   0.02660   0.03870   0.00000  -0.00300  -0.00480
C2967     0.13000   0.02540   0.04900   0.00200  -0.02800   0.00310
C2969     0.15200   0.02480   0.05000   0.00000  -0.01500   0.00010
N2971     0.04710   0.02330   0.03030  -0.00200   0.00130  -0.00030
N2972     0.05650   0.02450   0.03410  -0.00140   0.00230   0.00040
C2973     0.07500   0.02400   0.03410  -0.00840   0.01140   0.00570
C2975     0.09300   0.02660   0.03870   0.00000   0.00300   0.00480
C2977     0.13000   0.02540   0.04900   0.00200   0.02800  -0.00310
C2979     0.15200   0.02480   0.05000   0.00000   0.01500  -0.00010
Co2981    0.02490   0.02490   0.02650  -0.00028  -0.00071   0.00071
Co2982    0.02490   0.02490   0.02650  -0.00028   0.00071  -0.00071
Co2983    0.02490   0.02490   0.02650   0.00028  -0.00071  -0.00071
Co2984    0.02490   0.02490   0.02650   0.00028   0.00071   0.00071
C2985     0.01940   0.07600   0.04700   0.00000   0.00000   0.01000
C2986     0.02310   0.06200   0.03900   0.00000   0.00000   0.00900
C2987     0.02250   0.08400   0.04600   0.00000   0.00000   0.03100
C2988     0.02300   0.08800   0.05200   0.00000   0.00000  -0.00900
C2989     0.01940   0.07600   0.04700   0.00000   0.00000  -0.01000
C2990     0.02310   0.06200   0.03900   0.00000   0.00000  -0.00900
C2991     0.02250   0.08400   0.04600   0.00000   0.00000  -0.03100
C2992     0.02300   0.08800   0.05200   0.00000   0.00000   0.00900
C2993     0.07600   0.01940   0.04700   0.00000  -0.01000   0.00000
C2994     0.06200   0.02310   0.03900   0.00000  -0.00900   0.00000
C2995     0.08400   0.02250   0.04600   0.00000  -0.03100   0.00000
C2996     0.08800   0.02300   0.05200   0.00000   0.00900   0.00000
C2997     0.07600   0.01940   0.04700   0.00000   0.01000   0.00000
C2998     0.06200   0.02310   0.03900   0.00000   0.00900   0.00000
C2999     0.08400   0.02250   0.04600   0.00000   0.03100   0.00000
C3000     0.08800   0.02300   0.05200   0.00000  -0.00900   0.00000
N3001     0.02330   0.04710   0.03030  -0.00200  -0.00030   0.00130
N3002     0.02450   0.05650   0.03410  -0.00140   0.00040   0.00230
C3003     0.02400   0.07500   0.03410  -0.00840   0.00570   0.01140
C3005     0.02660   0.09300   0.03870   0.00000   0.00480   0.00300
C3007     0.02540   0.13000   0.04900   0.00200  -0.00310   0.02800
C3009     0.02480   0.15200   0.05000   0.00000  -0.00010   0.01500
N3011     0.02330   0.04710   0.03030  -0.00200   0.00030  -0.00130
N3012     0.02450   0.05650   0.03410  -0.00140  -0.00040  -0.00230
C3013     0.02400   0.07500   0.03410  -0.00840  -0.00570  -0.01140
C3015     0.02660   0.09300   0.03870   0.00000  -0.00480  -0.00300
C3017     0.02540   0.13000   0.04900   0.00200   0.00310  -0.02800
C3019     0.02480   0.15200   0.05000   0.00000   0.00010  -0.01500
N3021     0.04710   0.02330   0.03030   0.00200  -0.00130  -0.00030
N3022     0.05650   0.02450   0.03410   0.00140  -0.00230   0.00040
C3023     0.07500   0.02400   0.03410   0.00840  -0.01140   0.00570
C3025     0.09300   0.02660   0.03870   0.00000  -0.00300   0.00480
C3027     0.13000   0.02540   0.04900  -0.00200  -0.02800  -0.00310
C3029     0.15200   0.02480   0.05000   0.00000  -0.01500  -0.00010
N3031     0.04710   0.02330   0.03030   0.00200   0.00130   0.00030
N3032     0.05650   0.02450   0.03410   0.00140   0.00230  -0.00040
C3033     0.07500   0.02400   0.03410   0.00840   0.01140  -0.00570
C3035     0.09300   0.02660   0.03870   0.00000   0.00300  -0.00480
C3037     0.13000   0.02540   0.04900  -0.00200   0.02800   0.00310
C3039     0.15200   0.02480   0.05000   0.00000   0.01500   0.00010
N3041     0.02330   0.04710   0.03030   0.00200  -0.00030  -0.00130
N3042     0.02450   0.05650   0.03410   0.00140   0.00040  -0.00230
C3043     0.02400   0.07500   0.03410   0.00840   0.00570  -0.01140
C3045     0.02660   0.09300   0.03870   0.00000   0.00480  -0.00300
C3047     0.02540   0.13000   0.04900  -0.00200  -0.00310  -0.02800
C3049     0.02480   0.15200   0.05000   0.00000  -0.00010  -0.01500
N3051     0.02330   0.04710   0.03030   0.00200   0.00030   0.00130
N3052     0.02450   0.05650   0.03410   0.00140  -0.00040   0.00230
C3053     0.02400   0.07500   0.03410   0.00840  -0.00570   0.01140
C3055     0.02660   0.09300   0.03870   0.00000  -0.00480   0.00300
C3057     0.02540   0.13000   0.04900  -0.00200   0.00310   0.02800
C3059     0.02480   0.15200   0.05000   0.00000   0.00010   0.01500
N3061     0.04710   0.02330   0.03030  -0.00200  -0.00130   0.00030
N3062     0.05650   0.02450   0.03410  -0.00140  -0.00230  -0.00040
C3063     0.07500   0.02400   0.03410  -0.00840  -0.01140  -0.00570
C3065     0.09300   0.02660   0.03870   0.00000  -0.00300  -0.00480
C3067     0.13000   0.02540   0.04900   0.00200  -0.02800   0.00310
C3069     0.15200   0.02480   0.05000   0.00000  -0.01500   0.00010
N3071     0.04710   0.02330   0.03030  -0.00200   0.00130  -0.00030
N3072     0.05650   0.02450   0.03410  -0.00140   0.00230   0.00040
C3073     0.07500   0.02400   0.03410  -0.00840   0.01140   0.00570
C3075     0.09300   0.02660   0.03870   0.00000   0.00300   0.00480
C3077     0.13000   0.02540   0.04900   0.00200   0.02800  -0.00310
C3079     0.15200   0.02480   0.05000   0.00000   0.01500  -0.00010
Co3081    0.02490   0.02490   0.02650  -0.00028  -0.00071   0.00071
Co3082    0.02490   0.02490   0.02650  -0.00028   0.00071  -0.00071
Co3083    0.02490   0.02490   0.02650   0.00028  -0.00071  -0.00071
Co3084    0.02490   0.02490   0.02650   0.00028   0.00071   0.00071
C3085     0.01940   0.07600   0.04700   0.00000   0.00000   0.01000
C3086     0.02310   0.06200   0.03900   0.00000   0.00000   0.00900
C3087     0.02250   0.08400   0.04600   0.00000   0.00000   0.03100
C3088     0.02300   0.08800   0.05200   0.00000   0.00000  -0.00900
C3089     0.01940   0.07600   0.04700   0.00000   0.00000  -0.01000
C3090     0.02310   0.06200   0.03900   0.00000   0.00000  -0.00900
C3091     0.02250   0.08400   0.04600   0.00000   0.00000  -0.03100
C3092     0.02300   0.08800   0.05200   0.00000   0.00000   0.00900
C3093     0.07600   0.01940   0.04700   0.00000  -0.01000   0.00000
C3094     0.06200   0.02310   0.03900   0.00000  -0.00900   0.00000
C3095     0.08400   0.02250   0.04600   0.00000  -0.03100   0.00000
C3096     0.08800   0.02300   0.05200   0.00000   0.00900   0.00000
C3097     0.07600   0.01940   0.04700   0.00000   0.01000   0.00000
C3098     0.06200   0.02310   0.03900   0.00000   0.00900   0.00000
C3099     0.08400   0.02250   0.04600   0.00000   0.03100   0.00000
C3100     0.08800   0.02300   0.05200   0.00000  -0.00900   0.00000
N3101     0.02330   0.04710   0.03030  -0.00200  -0.00030   0.00130
N3102     0.02450   0.05650   0.03410  -0.00140   0.00040   0.00230
C3103     0.02400   0.07500   0.03410  -0.00840   0.00570   0.01140
C3105     0.02660   0.09300   0.03870   0.00000   0.00480   0.00300
C3107     0.02540   0.13000   0.04900   0.00200  -0.00310   0.02800
C3109     0.02480   0.15200   0.05000   0.00000  -0.00010   0.01500
N3111     0.02330   0.04710   0.03030  -0.00200   0.00030  -0.00130
N3112     0.02450   0.05650   0.03410  -0.00140  -0.00040  -0.00230
C3113     0.02400   0.07500   0.03410  -0.00840  -0.00570  -0.01140
C3115     0.02660   0.09300   0.03870   0.00000  -0.00480  -0.00300
C3117     0.02540   0.13000   0.04900   0.00200   0.00310  -0.02800
C3119     0.02480   0.15200   0.05000   0.00000   0.00010  -0.01500
N3121     0.04710   0.02330   0.03030   0.00200  -0.00130  -0.00030
N3122     0.05650   0.02450   0.03410   0.00140  -0.00230   0.00040
C3123     0.07500   0.02400   0.03410   0.00840  -0.01140   0.00570
C3125     0.09300   0.02660   0.03870   0.00000  -0.00300   0.00480
C3127     0.13000   0.02540   0.04900  -0.00200  -0.02800  -0.00310
C3129     0.15200   0.02480   0.05000   0.00000  -0.01500  -0.00010
N3131     0.04710   0.02330   0.03030   0.00200   0.00130   0.00030
N3132     0.05650   0.02450   0.03410   0.00140   0.00230  -0.00040
C3133     0.07500   0.02400   0.03410   0.00840   0.01140  -0.00570
C3135     0.09300   0.02660   0.03870   0.00000   0.00300  -0.00480
C3137     0.13000   0.02540   0.04900  -0.00200   0.02800   0.00310
C3139     0.15200   0.02480   0.05000   0.00000   0.01500   0.00010
N3141     0.02330   0.04710   0.03030   0.00200  -0.00030  -0.00130
N3142     0.02450   0.05650   0.03410   0.00140   0.00040  -0.00230
C3143     0.02400   0.07500   0.03410   0.00840   0.00570  -0.01140
C3145     0.02660   0.09300   0.03870   0.00000   0.00480  -0.00300
C3147     0.02540   0.13000   0.04900  -0.00200  -0.00310  -0.02800
C3149     0.02480   0.15200   0.05000   0.00000  -0.00010  -0.01500
N3151     0.02330   0.04710   0.03030   0.00200   0.00030   0.00130
N3152     0.02450   0.05650   0.03410   0.00140  -0.00040   0.00230
C3153     0.02400   0.07500   0.03410   0.00840  -0.00570   0.01140
C3155     0.02660   0.09300   0.03870   0.00000  -0.00480   0.00300
C3157     0.02540   0.13000   0.04900  -0.00200   0.00310   0.02800
C3159     0.02480   0.15200   0.05000   0.00000   0.00010   0.01500
N3161     0.04710   0.02330   0.03030  -0.00200  -0.00130   0.00030
N3162     0.05650   0.02450   0.03410  -0.00140  -0.00230  -0.00040
C3163     0.07500   0.02400   0.03410  -0.00840  -0.01140  -0.00570
C3165     0.09300   0.02660   0.03870   0.00000  -0.00300  -0.00480
C3167     0.13000   0.02540   0.04900   0.00200  -0.02800   0.00310
C3169     0.15200   0.02480   0.05000   0.00000  -0.01500   0.00010
N3171     0.04710   0.02330   0.03030  -0.00200   0.00130  -0.00030
N3172     0.05650   0.02450   0.03410  -0.00140   0.00230   0.00040
C3173     0.07500   0.02400   0.03410  -0.00840   0.01140   0.00570
C3175     0.09300   0.02660   0.03870   0.00000   0.00300   0.00480
C3177     0.13000   0.02540   0.04900   0.00200   0.02800  -0.00310
C3179     0.15200   0.02480   0.05000   0.00000   0.01500  -0.00010
Co3181    0.02490   0.02490   0.02650  -0.00028  -0.00071   0.00071
Co3182    0.02490   0.02490   0.02650  -0.00028   0.00071  -0.00071
Co3183    0.02490   0.02490   0.02650   0.00028  -0.00071  -0.00071
Co3184    0.02490   0.02490   0.02650   0.00028   0.00071   0.00071
C3185     0.01940   0.07600   0.04700   0.00000   0.00000   0.01000
C3186     0.02310   0.06200   0.03900   0.00000   0.00000   0.00900
C3187     0.02250   0.08400   0.04600   0.00000   0.00000   0.03100
C3188     0.02300   0.08800   0.05200   0.00000   0.00000  -0.00900
C3189     0.01940   0.07600   0.04700   0.00000   0.00000  -0.01000
C3190     0.02310   0.06200   0.03900   0.00000   0.00000  -0.00900
C3191     0.02250   0.08400   0.04600   0.00000   0.00000  -0.03100
C3192     0.02300   0.08800   0.05200   0.00000   0.00000   0.00900
C3193     0.07600   0.01940   0.04700   0.00000  -0.01000   0.00000
C3194     0.06200   0.02310   0.03900   0.00000  -0.00900   0.00000
C3195     0.08400   0.02250   0.04600   0.00000  -0.03100   0.00000
C3196     0.08800   0.02300   0.05200   0.00000   0.00900   0.00000
C3197     0.07600   0.01940   0.04700   0.00000   0.01000   0.00000
C3198     0.06200   0.02310   0.03900   0.00000   0.00900   0.00000
C3199     0.08400   0.02250   0.04600   0.00000   0.03100   0.00000
C3200     0.08800   0.02300   0.05200   0.00000  -0.00900   0.00000
N3201     0.02330   0.04710   0.03030  -0.00200  -0.00030   0.00130
N3202     0.02450   0.05650   0.03410  -0.00140   0.00040   0.00230
C3203     0.02400   0.07500   0.03410  -0.00840   0.00570   0.01140
C3205     0.02660   0.09300   0.03870   0.00000   0.00480   0.00300
C3207     0.02540   0.13000   0.04900   0.00200  -0.00310   0.02800
C3209     0.02480   0.15200   0.05000   0.00000  -0.00010   0.01500
N3211     0.02330   0.04710   0.03030  -0.00200   0.00030  -0.00130
N3212     0.02450   0.05650   0.03410  -0.00140  -0.00040  -0.00230
C3213     0.02400   0.07500   0.03410  -0.00840  -0.00570  -0.01140
C3215     0.02660   0.09300   0.03870   0.00000  -0.00480  -0.00300
C3217     0.02540   0.13000   0.04900   0.00200   0.00310  -0.02800
C3219     0.02480   0.15200   0.05000   0.00000   0.00010  -0.01500
N3221     0.04710   0.02330   0.03030   0.00200  -0.00130  -0.00030
N3222     0.05650   0.02450   0.03410   0.00140  -0.00230   0.00040
C3223     0.07500   0.02400   0.03410   0.00840  -0.01140   0.00570
C3225     0.09300   0.02660   0.03870   0.00000  -0.00300   0.00480
C3227     0.13000   0.02540   0.04900  -0.00200  -0.02800  -0.00310
C3229     0.15200   0.02480   0.05000   0.00000  -0.01500  -0.00010
N3231     0.04710   0.02330   0.03030   0.00200   0.00130   0.00030
N3232     0.05650   0.02450   0.03410   0.00140   0.00230  -0.00040
C3233     0.07500   0.02400   0.03410   0.00840   0.01140  -0.00570
C3235     0.09300   0.02660   0.03870   0.00000   0.00300  -0.00480
C3237     0.13000   0.02540   0.04900  -0.00200   0.02800   0.00310
C3239     0.15200   0.02480   0.05000   0.00000   0.01500   0.00010
N3241     0.02330   0.04710   0.03030   0.00200  -0.00030  -0.00130
N3242     0.02450   0.05650   0.03410   0.00140   0.00040  -0.00230
C3243     0.02400   0.07500   0.03410   0.00840   0.00570  -0.01140
C3245     0.02660   0.09300   0.03870   0.00000   0.00480  -0.00300
C3247     0.02540   0.13000   0.04900  -0.00200  -0.00310  -0.02800
C3249     0.02480   0.15200   0.05000   0.00000  -0.00010  -0.01500
N3251     0.02330   0.04710   0.03030   0.00200   0.00030   0.00130
N3252     0.02450   0.05650   0.03410   0.00140  -0.00040   0.00230
C3253     0.02400   0.07500   0.03410   0.00840  -0.00570   0.01140
C3255     0.02660   0.09300   0.03870   0.00000  -0.00480   0.00300
C3257     0.02540   0.13000   0.04900  -0.00200   0.00310   0.02800
C3259     0.02480   0.15200   0.05000   0.00000   0.00010   0.01500
N3261     0.04710   0.02330   0.03030  -0.00200  -0.00130   0.00030
N3262     0.05650   0.02450   0.03410  -0.00140  -0.00230  -0.00040
C3263     0.07500   0.02400   0.03410  -0.00840  -0.01140  -0.00570
C3265     0.09300   0.02660   0.03870   0.00000  -0.00300  -0.00480
C3267     0.13000   0.02540   0.04900   0.00200  -0.02800   0.00310
C3269     0.15200   0.02480   0.05000   0.00000  -0.01500   0.00010
N3271     0.04710   0.02330   0.03030  -0.00200   0.00130  -0.00030
N3272     0.05650   0.02450   0.03410  -0.00140   0.00230   0.00040
C3273     0.07500   0.02400   0.03410  -0.00840   0.01140   0.00570
C3275     0.09300   0.02660   0.03870   0.00000   0.00300   0.00480
C3277     0.13000   0.02540   0.04900   0.00200   0.02800  -0.00310
C3279     0.15200   0.02480   0.05000   0.00000   0.01500  -0.00010
Co3281    0.02490   0.02490   0.02650  -0.00028  -0.00071   0.00071
Co3282    0.02490   0.02490   0.02650  -0.00028   0.00071  -0.00071
Co3283    0.02490   0.02490   0.02650   0.00028  -0.00071  -0.00071
Co3284    0.02490   0.02490   0.02650   0.00028   0.00071   0.00071
C3285     0.01940   0.07600   0.04700   0.00000   0.00000   0.01000
C3286     0.02310   0.06200   0.03900   0.00000   0.00000   0.00900
C3287     0.02250   0.08400   0.04600   0.00000   0.00000   0.03100
C3288     0.02300   0.08800   0.05200   0.00000   0.00000  -0.00900
C3289     0.01940   0.07600   0.04700   0.00000   0.00000  -0.01000
C3290     0.02310   0.06200   0.03900   0.00000   0.00000  -0.00900
C3291     0.02250   0.08400   0.04600   0.00000   0.00000  -0.03100
C3292     0.02300   0.08800   0.05200   0.00000   0.00000   0.00900
C3293     0.07600   0.01940   0.04700   0.00000  -0.01000   0.00000
C3294     0.06200   0.02310   0.03900   0.00000  -0.00900   0.00000
C3295     0.08400   0.02250   0.04600   0.00000  -0.03100   0.00000
C3296     0.08800   0.02300   0.05200   0.00000   0.00900   0.00000
C3297     0.07600   0.01940   0.04700   0.00000   0.01000   0.00000
C3298     0.06200   0.02310   0.03900   0.00000   0.00900   0.00000
C3299     0.08400   0.02250   0.04600   0.00000   0.03100   0.00000
C3300     0.08800   0.02300   0.05200   0.00000  -0.00900   0.00000
N3301     0.02330   0.04710   0.03030  -0.00200  -0.00030   0.00130
N3302     0.02450   0.05650   0.03410  -0.00140   0.00040   0.00230
C3303     0.02400   0.07500   0.03410  -0.00840   0.00570   0.01140
C3305     0.02660   0.09300   0.03870   0.00000   0.00480   0.00300
C3307     0.02540   0.13000   0.04900   0.00200  -0.00310   0.02800
C3309     0.02480   0.15200   0.05000   0.00000  -0.00010   0.01500
N3311     0.02330   0.04710   0.03030  -0.00200   0.00030  -0.00130
N3312     0.02450   0.05650   0.03410  -0.00140  -0.00040  -0.00230
C3313     0.02400   0.07500   0.03410  -0.00840  -0.00570  -0.01140
C3315     0.02660   0.09300   0.03870   0.00000  -0.00480  -0.00300
C3317     0.02540   0.13000   0.04900   0.00200   0.00310  -0.02800
C3319     0.02480   0.15200   0.05000   0.00000   0.00010  -0.01500
N3321     0.04710   0.02330   0.03030   0.00200  -0.00130  -0.00030
N3322     0.05650   0.02450   0.03410   0.00140  -0.00230   0.00040
C3323     0.07500   0.02400   0.03410   0.00840  -0.01140   0.00570
C3325     0.09300   0.02660   0.03870   0.00000  -0.00300   0.00480
C3327     0.13000   0.02540   0.04900  -0.00200  -0.02800  -0.00310
C3329     0.15200   0.02480   0.05000   0.00000  -0.01500  -0.00010
N3331     0.04710   0.02330   0.03030   0.00200   0.00130   0.00030
N3332     0.05650   0.02450   0.03410   0.00140   0.00230  -0.00040
C3333     0.07500   0.02400   0.03410   0.00840   0.01140  -0.00570
C3335     0.09300   0.02660   0.03870   0.00000   0.00300  -0.00480
C3337     0.13000   0.02540   0.04900  -0.00200   0.02800   0.00310
C3339     0.15200   0.02480   0.05000   0.00000   0.01500   0.00010
N3341     0.02330   0.04710   0.03030   0.00200  -0.00030  -0.00130
N3342     0.02450   0.05650   0.03410   0.00140   0.00040  -0.00230
C3343     0.02400   0.07500   0.03410   0.00840   0.00570  -0.01140
C3345     0.02660   0.09300   0.03870   0.00000   0.00480  -0.00300
C3347     0.02540   0.13000   0.04900  -0.00200  -0.00310  -0.02800
C3349     0.02480   0.15200   0.05000   0.00000  -0.00010  -0.01500
N3351     0.02330   0.04710   0.03030   0.00200   0.00030   0.00130
N3352     0.02450   0.05650   0.03410   0.00140  -0.00040   0.00230
C3353     0.02400   0.07500   0.03410   0.00840  -0.00570   0.01140
C3355     0.02660   0.09300   0.03870   0.00000  -0.00480   0.00300
C3357     0.02540   0.13000   0.04900  -0.00200   0.00310   0.02800
C3359     0.02480   0.15200   0.05000   0.00000   0.00010   0.01500
N3361     0.04710   0.02330   0.03030  -0.00200  -0.00130   0.00030
N3362     0.05650   0.02450   0.03410  -0.00140  -0.00230  -0.00040
C3363     0.07500   0.02400   0.03410  -0.00840  -0.01140  -0.00570
C3365     0.09300   0.02660   0.03870   0.00000  -0.00300  -0.00480
C3367     0.13000   0.02540   0.04900   0.00200  -0.02800   0.00310
C3369     0.15200   0.02480   0.05000   0.00000  -0.01500   0.00010
N3371     0.04710   0.02330   0.03030  -0.00200   0.00130  -0.00030
N3372     0.05650   0.02450   0.03410  -0.00140   0.00230   0.00040
C3373     0.07500   0.02400   0.03410  -0.00840   0.01140   0.00570
C3375     0.09300   0.02660   0.03870   0.00000   0.00300   0.00480
C3377     0.13000   0.02540   0.04900   0.00200   0.02800  -0.00310
C3379     0.15200   0.02480   0.05000   0.00000   0.01500  -0.00010
Co3381    0.02490   0.02490   0.02650  -0.00028  -0.00071   0.00071
Co3382    0.02490   0.02490   0.02650  -0.00028   0.00071  -0.00071
Co3383    0.02490   0.02490   0.02650   0.00028  -0.00071  -0.00071
Co3384    0.02490   0.02490   0.02650   0.00028   0.00071   0.00071
C3385     0.01940   0.07600   0.04700   0.00000   0.00000   0.01000
C3386     0.02310   0.06200   0.03900   0.00000   0.00000   0.00900
C3387     0.02250   0.08400   0.04600   0.00000   0.00000   0.03100
C3388     0.02300   0.08800   0.05200   0.00000   0.00000  -0.00900
C3389     0.01940   0.07600   0.04700   0.00000   0.00000  -0.01000
C3390     0.02310   0.06200   0.03900   0.00000   0.00000  -0.00900
C3391     0.02250   0.08400   0.04600   0.00000   0.00000  -0.03100
C3392     0.02300   0.08800   0.05200   0.00000   0.00000   0.00900
C3393     0.07600   0.01940   0.04700   0.00000  -0.01000   0.00000
C3394     0.06200   0.02310   0.03900   0.00000  -0.00900   0.00000
C3395     0.08400   0.02250   0.04600   0.00000  -0.03100   0.00000
C3396     0.08800   0.02300   0.05200   0.00000   0.00900   0.00000
C3397     0.07600   0.01940   0.04700   0.00000   0.01000   0.00000
C3398     0.06200   0.02310   0.03900   0.00000   0.00900   0.00000
C3399     0.08400   0.02250   0.04600   0.00000   0.03100   0.00000
C3400     0.08800   0.02300   0.05200   0.00000  -0.00900   0.00000
N3401     0.02330   0.04710   0.03030  -0.00200  -0.00030   0.00130
N3402     0.02450   0.05650   0.03410  -0.00140   0.00040   0.00230
C3403     0.02400   0.07500   0.03410  -0.00840   0.00570   0.01140
C3405     0.02660   0.09300   0.03870   0.00000   0.00480   0.00300
C3407     0.02540   0.13000   0.04900   0.00200  -0.00310   0.02800
C3409     0.02480   0.15200   0.05000   0.00000  -0.00010   0.01500
N3411     0.02330   0.04710   0.03030  -0.00200   0.00030  -0.00130
N3412     0.02450   0.05650   0.03410  -0.00140  -0.00040  -0.00230
C3413     0.02400   0.07500   0.03410  -0.00840  -0.00570  -0.01140
C3415     0.02660   0.09300   0.03870   0.00000  -0.00480  -0.00300
C3417     0.02540   0.13000   0.04900   0.00200   0.00310  -0.02800
C3419     0.02480   0.15200   0.05000   0.00000   0.00010  -0.01500
N3421     0.04710   0.02330   0.03030   0.00200  -0.00130  -0.00030
N3422     0.05650   0.02450   0.03410   0.00140  -0.00230   0.00040
C3423     0.07500   0.02400   0.03410   0.00840  -0.01140   0.00570
C3425     0.09300   0.02660   0.03870   0.00000  -0.00300   0.00480
C3427     0.13000   0.02540   0.04900  -0.00200  -0.02800  -0.00310
C3429     0.15200   0.02480   0.05000   0.00000  -0.01500  -0.00010
N3431     0.04710   0.02330   0.03030   0.00200   0.00130   0.00030
N3432     0.05650   0.02450   0.03410   0.00140   0.00230  -0.00040
C3433     0.07500   0.02400   0.03410   0.00840   0.01140  -0.00570
C3435     0.09300   0.02660   0.03870   0.00000   0.00300  -0.00480
C3437     0.13000   0.02540   0.04900  -0.00200   0.02800   0.00310
C3439     0.15200   0.02480   0.05000   0.00000   0.01500   0.00010
N3441     0.02330   0.04710   0.03030   0.00200  -0.00030  -0.00130
N3442     0.02450   0.05650   0.03410   0.00140   0.00040  -0.00230
C3443     0.02400   0.07500   0.03410   0.00840   0.00570  -0.01140
C3445     0.02660   0.09300   0.03870   0.00000   0.00480  -0.00300
C3447     0.02540   0.13000   0.04900  -0.00200  -0.00310  -0.02800
C3449     0.02480   0.15200   0.05000   0.00000  -0.00010  -0.01500
N3451     0.02330   0.04710   0.03030   0.00200   0.00030   0.00130
N3452     0.02450   0.05650   0.03410   0.00140  -0.00040   0.00230
C3453     0.02400   0.07500   0.03410   0.00840  -0.00570   0.01140
C3455     0.02660   0.09300   0.03870   0.00000  -0.00480   0.00300
C3457     0.02540   0.13000   0.04900  -0.00200   0.00310   0.02800
C3459     0.02480   0.15200   0.05000   0.00000   0.00010   0.01500
N3461     0.04710   0.02330   0.03030  -0.00200  -0.00130   0.00030
N3462     0.05650   0.02450   0.03410  -0.00140  -0.00230  -0.00040
C3463     0.07500   0.02400   0.03410  -0.00840  -0.01140  -0.00570
C3465     0.09300   0.02660   0.03870   0.00000  -0.00300  -0.00480
C3467     0.13000   0.02540   0.04900   0.00200  -0.02800   0.00310
C3469     0.15200   0.02480   0.05000   0.00000  -0.01500   0.00010
N3471     0.04710   0.02330   0.03030  -0.00200   0.00130  -0.00030
N3472     0.05650   0.02450   0.03410  -0.00140   0.00230   0.00040
C3473     0.07500   0.02400   0.03410  -0.00840   0.01140   0.00570
C3475     0.09300   0.02660   0.03870   0.00000   0.00300   0.00480
C3477     0.13000   0.02540   0.04900   0.00200   0.02800  -0.00310
C3479     0.15200   0.02480   0.05000   0.00000   0.01500  -0.00010
Co3481    0.02490   0.02490   0.02650  -0.00028  -0.00071   0.00071
Co3482    0.02490   0.02490   0.02650  -0.00028   0.00071  -0.00071
Co3483    0.02490   0.02490   0.02650   0.00028  -0.00071  -0.00071
Co3484    0.02490   0.02490   0.02650   0.00028   0.00071   0.00071
C3485     0.01940   0.07600   0.04700   0.00000   0.00000   0.01000
C3486     0.02310   0.06200   0.03900   0.00000   0.00000   0.00900
C3487     0.02250   0.08400   0.04600   0.00000   0.00000   0.03100
C3488     0.02300   0.08800   0.05200   0.00000   0.00000  -0.00900
C3489     0.01940   0.07600   0.04700   0.00000   0.00000  -0.01000
C3490     0.02310   0.06200   0.03900   0.00000   0.00000  -0.00900
C3491     0.02250   0.08400   0.04600   0.00000   0.00000  -0.03100
C3492     0.02300   0.08800   0.05200   0.00000   0.00000   0.00900
C3493     0.07600   0.01940   0.04700   0.00000  -0.01000   0.00000
C3494     0.06200   0.02310   0.03900   0.00000  -0.00900   0.00000
C3495     0.08400   0.02250   0.04600   0.00000  -0.03100   0.00000
C3496     0.08800   0.02300   0.05200   0.00000   0.00900   0.00000
C3497     0.07600   0.01940   0.04700   0.00000   0.01000   0.00000
C3498     0.06200   0.02310   0.03900   0.00000   0.00900   0.00000
C3499     0.08400   0.02250   0.04600   0.00000   0.03100   0.00000
C3500     0.08800   0.02300   0.05200   0.00000  -0.00900   0.00000
N3501     0.02330   0.04710   0.03030  -0.00200  -0.00030   0.00130
N3502     0.02450   0.05650   0.03410  -0.00140   0.00040   0.00230
C3503     0.02400   0.07500   0.03410  -0.00840   0.00570   0.01140
C3505     0.02660   0.09300   0.03870   0.00000   0.00480   0.00300
C3507     0.02540   0.13000   0.04900   0.00200  -0.00310   0.02800
C3509     0.02480   0.15200   0.05000   0.00000  -0.00010   0.01500
N3511     0.02330   0.04710   0.03030  -0.00200   0.00030  -0.00130
N3512     0.02450   0.05650   0.03410  -0.00140  -0.00040  -0.00230
C3513     0.02400   0.07500   0.03410  -0.00840  -0.00570  -0.01140
C3515     0.02660   0.09300   0.03870   0.00000  -0.00480  -0.00300
C3517     0.02540   0.13000   0.04900   0.00200   0.00310  -0.02800
C3519     0.02480   0.15200   0.05000   0.00000   0.00010  -0.01500
N3521     0.04710   0.02330   0.03030   0.00200  -0.00130  -0.00030
N3522     0.05650   0.02450   0.03410   0.00140  -0.00230   0.00040
C3523     0.07500   0.02400   0.03410   0.00840  -0.01140   0.00570
C3525     0.09300   0.02660   0.03870   0.00000  -0.00300   0.00480
C3527     0.13000   0.02540   0.04900  -0.00200  -0.02800  -0.00310
C3529     0.15200   0.02480   0.05000   0.00000  -0.01500  -0.00010
N3531     0.04710   0.02330   0.03030   0.00200   0.00130   0.00030
N3532     0.05650   0.02450   0.03410   0.00140   0.00230  -0.00040
C3533     0.07500   0.02400   0.03410   0.00840   0.01140  -0.00570
C3535     0.09300   0.02660   0.03870   0.00000   0.00300  -0.00480
C3537     0.13000   0.02540   0.04900  -0.00200   0.02800   0.00310
C3539     0.15200   0.02480   0.05000   0.00000   0.01500   0.00010
N3541     0.02330   0.04710   0.03030   0.00200  -0.00030  -0.00130
N3542     0.02450   0.05650   0.03410   0.00140   0.00040  -0.00230
C3543     0.02400   0.07500   0.03410   0.00840   0.00570  -0.01140
C3545     0.02660   0.09300   0.03870   0.00000   0.00480  -0.00300
C3547     0.02540   0.13000   0.04900  -0.00200  -0.00310  -0.02800
C3549     0.02480   0.15200   0.05000   0.00000  -0.00010  -0.01500
N3551     0.02330   0.04710   0.03030   0.00200   0.00030   0.00130
N3552     0.02450   0.05650   0.03410   0.00140  -0.00040   0.00230
C3553     0.02400   0.07500   0.03410   0.00840  -0.00570   0.01140
C3555     0.02660   0.09300   0.03870   0.00000  -0.00480   0.00300
C3557     0.02540   0.13000   0.04900  -0.00200   0.00310   0.02800
C3559     0.02480   0.15200   0.05000   0.00000   0.00010   0.01500
N3561     0.04710   0.02330   0.03030  -0.00200  -0.00130   0.00030
N3562     0.05650   0.02450   0.03410  -0.00140  -0.00230  -0.00040
C3563     0.07500   0.02400   0.03410  -0.00840  -0.01140  -0.00570
C3565     0.09300   0.02660   0.03870   0.00000  -0.00300  -0.00480
C3567     0.13000   0.02540   0.04900   0.00200  -0.02800   0.00310
C3569     0.15200   0.02480   0.05000   0.00000  -0.01500   0.00010
N3571     0.04710   0.02330   0.03030  -0.00200   0.00130  -0.00030
N3572     0.05650   0.02450   0.03410  -0.00140   0.00230   0.00040
C3573     0.07500   0.02400   0.03410  -0.00840   0.01140   0.00570
C3575     0.09300   0.02660   0.03870   0.00000   0.00300   0.00480
C3577     0.13000   0.02540   0.04900   0.00200   0.02800  -0.00310
C3579     0.15200   0.02480   0.05000   0.00000   0.01500  -0.00010
Co3581    0.02490   0.02490   0.02650  -0.00028  -0.00071   0.00071
Co3582    0.02490   0.02490   0.02650  -0.00028   0.00071  -0.00071
Co3583    0.02490   0.02490   0.02650   0.00028  -0.00071  -0.00071
Co3584    0.02490   0.02490   0.02650   0.00028   0.00071   0.00071
C3585     0.01940   0.07600   0.04700   0.00000   0.00000   0.01000
C3586     0.02310   0.06200   0.03900   0.00000   0.00000   0.00900
C3587     0.02250   0.08400   0.04600   0.00000   0.00000   0.03100
C3588     0.02300   0.08800   0.05200   0.00000   0.00000  -0.00900
C3589     0.01940   0.07600   0.04700   0.00000   0.00000  -0.01000
C3590     0.02310   0.06200   0.03900   0.00000   0.00000  -0.00900
C3591     0.02250   0.08400   0.04600   0.00000   0.00000  -0.03100
C3592     0.02300   0.08800   0.05200   0.00000   0.00000   0.00900
C3593     0.07600   0.01940   0.04700   0.00000  -0.01000   0.00000
C3594     0.06200   0.02310   0.03900   0.00000  -0.00900   0.00000
C3595     0.08400   0.02250   0.04600   0.00000  -0.03100   0.00000
C3596     0.08800   0.02300   0.05200   0.00000   0.00900   0.00000
C3597     0.07600   0.01940   0.04700   0.00000   0.01000   0.00000
C3598     0.06200   0.02310   0.03900   0.00000   0.00900   0.00000
C3599     0.08400   0.02250   0.04600   0.00000   0.03100   0.00000
C3600     0.08800   0.02300   0.05200   0.00000  -0.00900   0.00000
N3601     0.02330   0.04710   0.03030  -0.00200  -0.00030   0.00130
N3602     0.02450   0.05650   0.03410  -0.00140   0.00040   0.00230
C3603     0.02400   0.07500   0.03410  -0.00840   0.00570   0.01140
C3605     0.02660   0.09300   0.03870   0.00000   0.00480   0.00300
C3607     0.02540   0.13000   0.04900   0.00200  -0.00310   0.02800
C3609     0.02480   0.15200   0.05000   0.00000  -0.00010   0.01500
N3611     0.02330   0.04710   0.03030  -0.00200   0.00030  -0.00130
N3612     0.02450   0.05650   0.03410  -0.00140  -0.00040  -0.00230
C3613     0.02400   0.07500   0.03410  -0.00840  -0.00570  -0.01140
C3615     0.02660   0.09300   0.03870   0.00000  -0.00480  -0.00300
C3617     0.02540   0.13000   0.04900   0.00200   0.00310  -0.02800
C3619     0.02480   0.15200   0.05000   0.00000   0.00010  -0.01500
N3621     0.04710   0.02330   0.03030   0.00200  -0.00130  -0.00030
N3622     0.05650   0.02450   0.03410   0.00140  -0.00230   0.00040
C3623     0.07500   0.02400   0.03410   0.00840  -0.01140   0.00570
C3625     0.09300   0.02660   0.03870   0.00000  -0.00300   0.00480
C3627     0.13000   0.02540   0.04900  -0.00200  -0.02800  -0.00310
C3629     0.15200   0.02480   0.05000   0.00000  -0.01500  -0.00010
N3631     0.04710   0.02330   0.03030   0.00200   0.00130   0.00030
N3632     0.05650   0.02450   0.03410   0.00140   0.00230  -0.00040
C3633     0.07500   0.02400   0.03410   0.00840   0.01140  -0.00570
C3635     0.09300   0.02660   0.03870   0.00000   0.00300  -0.00480
C3637     0.13000   0.02540   0.04900  -0.00200   0.02800   0.00310
C3639     0.15200   0.02480   0.05000   0.00000   0.01500   0.00010
N3641     0.02330   0.04710   0.03030   0.00200  -0.00030  -0.00130
N3642     0.02450   0.05650   0.03410   0.00140   0.00040  -0.00230
C3643     0.02400   0.07500   0.03410   0.00840   0.00570  -0.01140
C3645     0.02660   0.09300   0.03870   0.00000   0.00480  -0.00300
C3647     0.02540   0.13000   0.04900  -0.00200  -0.00310  -0.02800
C3649     0.02480   0.15200   0.05000   0.00000  -0.00010  -0.01500
N3651     0.02330   0.04710   0.03030   0.00200   0.00030   0.00130
N3652     0.02450   0.05650   0.03410   0.00140  -0.00040   0.00230
C3653     0.02400   0.07500   0.03410   0.00840  -0.00570   0.01140
C3655     0.02660   0.09300   0.03870   0.00000  -0.00480   0.00300
C3657     0.02540   0.13000   0.04900  -0.00200   0.00310   0.02800
C3659     0.02480   0.15200   0.05000   0.00000   0.00010   0.01500
N3661     0.04710   0.02330   0.03030  -0.00200  -0.00130   0.00030
N3662     0.05650   0.02450   0.03410  -0.00140  -0.00230  -0.00040
C3663     0.07500   0.02400   0.03410  -0.00840  -0.01140  -0.00570
C3665     0.09300   0.02660   0.03870   0.00000  -0.00300  -0.00480
C3667     0.13000   0.02540   0.04900   0.00200  -0.02800   0.00310
C3669     0.15200   0.02480   0.05000   0.00000  -0.01500   0.00010
N3671     0.04710   0.02330   0.03030  -0.00200   0.00130  -0.00030
N3672     0.05650   0.02450   0.03410  -0.00140   0.00230   0.00040
C3673     0.07500   0.02400   0.03410  -0.00840   0.01140   0.00570
C3675     0.09300   0.02660   0.03870   0.00000   0.00300   0.00480
C3677     0.13000   0.02540   0.04900   0.00200   0.02800  -0.00310
C3679     0.15200   0.02480   0.05000   0.00000   0.01500  -0.00010
Co3681    0.02490   0.02490   0.02650  -0.00028  -0.00071   0.00071
Co3682    0.02490   0.02490   0.02650  -0.00028   0.00071  -0.00071
Co3683    0.02490   0.02490   0.02650   0.00028  -0.00071  -0.00071
Co3684    0.02490   0.02490   0.02650   0.00028   0.00071   0.00071
C3685     0.01940   0.07600   0.04700   0.00000   0.00000   0.01000
C3686     0.02310   0.06200   0.03900   0.00000   0.00000   0.00900
C3687     0.02250   0.08400   0.04600   0.00000   0.00000   0.03100
C3688     0.02300   0.08800   0.05200   0.00000   0.00000  -0.00900
C3689     0.01940   0.07600   0.04700   0.00000   0.00000  -0.01000
C3690     0.02310   0.06200   0.03900   0.00000   0.00000  -0.00900
C3691     0.02250   0.08400   0.04600   0.00000   0.00000  -0.03100
C3692     0.02300   0.08800   0.05200   0.00000   0.00000   0.00900
C3693     0.07600   0.01940   0.04700   0.00000  -0.01000   0.00000
C3694     0.06200   0.02310   0.03900   0.00000  -0.00900   0.00000
C3695     0.08400   0.02250   0.04600   0.00000  -0.03100   0.00000
C3696     0.08800   0.02300   0.05200   0.00000   0.00900   0.00000
C3697     0.07600   0.01940   0.04700   0.00000   0.01000   0.00000
C3698     0.06200   0.02310   0.03900   0.00000   0.00900   0.00000
C3699     0.08400   0.02250   0.04600   0.00000   0.03100   0.00000
C3700     0.08800   0.02300   0.05200   0.00000  -0.00900   0.00000
N3701     0.02330   0.04710   0.03030  -0.00200  -0.00030   0.00130
N3702     0.02450   0.05650   0.03410  -0.00140   0.00040   0.00230
C3703     0.02400   0.07500   0.03410  -0.00840   0.00570   0.01140
C3705     0.02660   0.09300   0.03870   0.00000   0.00480   0.00300
C3707     0.02540   0.13000   0.04900   0.00200  -0.00310   0.02800
C3709     0.02480   0.15200   0.05000   0.00000  -0.00010   0.01500
N3711     0.02330   0.04710   0.03030  -0.00200   0.00030  -0.00130
N3712     0.02450   0.05650   0.03410  -0.00140  -0.00040  -0.00230
C3713     0.02400   0.07500   0.03410  -0.00840  -0.00570  -0.01140
C3715     0.02660   0.09300   0.03870   0.00000  -0.00480  -0.00300
C3717     0.02540   0.13000   0.04900   0.00200   0.00310  -0.02800
C3719     0.02480   0.15200   0.05000   0.00000   0.00010  -0.01500
N3721     0.04710   0.02330   0.03030   0.00200  -0.00130  -0.00030
N3722     0.05650   0.02450   0.03410   0.00140  -0.00230   0.00040
C3723     0.07500   0.02400   0.03410   0.00840  -0.01140   0.00570
C3725     0.09300   0.02660   0.03870   0.00000  -0.00300   0.00480
C3727     0.13000   0.02540   0.04900  -0.00200  -0.02800  -0.00310
C3729     0.15200   0.02480   0.05000   0.00000  -0.01500  -0.00010
N3731     0.04710   0.02330   0.03030   0.00200   0.00130   0.00030
N3732     0.05650   0.02450   0.03410   0.00140   0.00230  -0.00040
C3733     0.07500   0.02400   0.03410   0.00840   0.01140  -0.00570
C3735     0.09300   0.02660   0.03870   0.00000   0.00300  -0.00480
C3737     0.13000   0.02540   0.04900  -0.00200   0.02800   0.00310
C3739     0.15200   0.02480   0.05000   0.00000   0.01500   0.00010
N3741     0.02330   0.04710   0.03030   0.00200  -0.00030  -0.00130
N3742     0.02450   0.05650   0.03410   0.00140   0.00040  -0.00230
C3743     0.02400   0.07500   0.03410   0.00840   0.00570  -0.01140
C3745     0.02660   0.09300   0.03870   0.00000   0.00480  -0.00300
C3747     0.02540   0.13000   0.04900  -0.00200  -0.00310  -0.02800
C3749     0.02480   0.15200   0.05000   0.00000  -0.00010  -0.01500
N3751     0.02330   0.04710   0.03030   0.00200   0.00030   0.00130
N3752     0.02450   0.05650   0.03410   0.00140  -0.00040   0.00230
C3753     0.02400   0.07500   0.03410   0.00840  -0.00570   0.01140
C3755     0.02660   0.09300   0.03870   0.00000  -0.00480   0.00300
C3757     0.02540   0.13000   0.04900  -0.00200   0.00310   0.02800
C3759     0.02480   0.15200   0.05000   0.00000   0.00010   0.01500
N3761     0.04710   0.02330   0.03030  -0.00200  -0.00130   0.00030
N3762     0.05650   0.02450   0.03410  -0.00140  -0.00230  -0.00040
C3763     0.07500   0.02400   0.03410  -0.00840  -0.01140  -0.00570
C3765     0.09300   0.02660   0.03870   0.00000  -0.00300  -0.00480
C3767     0.13000   0.02540   0.04900   0.00200  -0.02800   0.00310
C3769     0.15200   0.02480   0.05000   0.00000  -0.01500   0.00010
N3771     0.04710   0.02330   0.03030  -0.00200   0.00130  -0.00030
N3772     0.05650   0.02450   0.03410  -0.00140   0.00230   0.00040
C3773     0.07500   0.02400   0.03410  -0.00840   0.01140   0.00570
C3775     0.09300   0.02660   0.03870   0.00000   0.00300   0.00480
C3777     0.13000   0.02540   0.04900   0.00200   0.02800  -0.00310
C3779     0.15200   0.02480   0.05000   0.00000   0.01500  -0.00010
Co3781    0.02490   0.02490   0.02650  -0.00028  -0.00071   0.00071
Co3782    0.02490   0.02490   0.02650  -0.00028   0.00071  -0.00071
Co3783    0.02490   0.02490   0.02650   0.00028  -0.00071  -0.00071
Co3784    0.02490   0.02490   0.02650   0.00028   0.00071   0.00071
C3785     0.01940   0.07600   0.04700   0.00000   0.00000   0.01000
C3786     0.02310   0.06200   0.03900   0.00000   0.00000   0.00900
C3787     0.02250   0.08400   0.04600   0.00000   0.00000   0.03100
C3788     0.02300   0.08800   0.05200   0.00000   0.00000  -0.00900
C3789     0.01940   0.07600   0.04700   0.00000   0.00000  -0.01000
C3790     0.02310   0.06200   0.03900   0.00000   0.00000  -0.00900
C3791     0.02250   0.08400   0.04600   0.00000   0.00000  -0.03100
C3792     0.02300   0.08800   0.05200   0.00000   0.00000   0.00900
C3793     0.07600   0.01940   0.04700   0.00000  -0.01000   0.00000
C3794     0.06200   0.02310   0.03900   0.00000  -0.00900   0.00000
C3795     0.08400   0.02250   0.04600   0.00000  -0.03100   0.00000
C3796     0.08800   0.02300   0.05200   0.00000   0.00900   0.00000
C3797     0.07600   0.01940   0.04700   0.00000   0.01000   0.00000
C3798     0.06200   0.02310   0.03900   0.00000   0.00900   0.00000
C3799     0.08400   0.02250   0.04600   0.00000   0.03100   0.00000
C3800     0.08800   0.02300   0.05200   0.00000  -0.00900   0.00000
N3801     0.02330   0.04710   0.03030  -0.00200  -0.00030   0.00130
N3802     0.02450   0.05650   0.03410  -0.00140   0.00040   0.00230
C3803     0.02400   0.07500   0.03410  -0.00840   0.00570   0.01140
C3805     0.02660   0.09300   0.03870   0.00000   0.00480   0.00300
C3807     0.02540   0.13000   0.04900   0.00200  -0.00310   0.02800
C3809     0.02480   0.15200   0.05000   0.00000  -0.00010   0.01500
N3811     0.02330   0.04710   0.03030  -0.00200   0.00030  -0.00130
N3812     0.02450   0.05650   0.03410  -0.00140  -0.00040  -0.00230
C3813     0.02400   0.07500   0.03410  -0.00840  -0.00570  -0.01140
C3815     0.02660   0.09300   0.03870   0.00000  -0.00480  -0.00300
C3817     0.02540   0.13000   0.04900   0.00200   0.00310  -0.02800
C3819     0.02480   0.15200   0.05000   0.00000   0.00010  -0.01500
N3821     0.04710   0.02330   0.03030   0.00200  -0.00130  -0.00030
N3822     0.05650   0.02450   0.03410   0.00140  -0.00230   0.00040
C3823     0.07500   0.02400   0.03410   0.00840  -0.01140   0.00570
C3825     0.09300   0.02660   0.03870   0.00000  -0.00300   0.00480
C3827     0.13000   0.02540   0.04900  -0.00200  -0.02800  -0.00310
C3829     0.15200   0.02480   0.05000   0.00000  -0.01500  -0.00010
N3831     0.04710   0.02330   0.03030   0.00200   0.00130   0.00030
N3832     0.05650   0.02450   0.03410   0.00140   0.00230  -0.00040
C3833     0.07500   0.02400   0.03410   0.00840   0.01140  -0.00570
C3835     0.09300   0.02660   0.03870   0.00000   0.00300  -0.00480
C3837     0.13000   0.02540   0.04900  -0.00200   0.02800   0.00310
C3839     0.15200   0.02480   0.05000   0.00000   0.01500   0.00010
N3841     0.02330   0.04710   0.03030   0.00200  -0.00030  -0.00130
N3842     0.02450   0.05650   0.03410   0.00140   0.00040  -0.00230
C3843     0.02400   0.07500   0.03410   0.00840   0.00570  -0.01140
C3845     0.02660   0.09300   0.03870   0.00000   0.00480  -0.00300
C3847     0.02540   0.13000   0.04900  -0.00200  -0.00310  -0.02800
C3849     0.02480   0.15200   0.05000   0.00000  -0.00010  -0.01500
N3851     0.02330   0.04710   0.03030   0.00200   0.00030   0.00130
N3852     0.02450   0.05650   0.03410   0.00140  -0.00040   0.00230
C3853     0.02400   0.07500   0.03410   0.00840  -0.00570   0.01140
C3855     0.02660   0.09300   0.03870   0.00000  -0.00480   0.00300
C3857     0.02540   0.13000   0.04900  -0.00200   0.00310   0.02800
C3859     0.02480   0.15200   0.05000   0.00000   0.00010   0.01500
N3861     0.04710   0.02330   0.03030  -0.00200  -0.00130   0.00030
N3862     0.05650   0.02450   0.03410  -0.00140  -0.00230  -0.00040
C3863     0.07500   0.02400   0.03410  -0.00840  -0.01140  -0.00570
C3865     0.09300   0.02660   0.03870   0.00000  -0.00300  -0.00480
C3867     0.13000   0.02540   0.04900   0.00200  -0.02800   0.00310
C3869     0.15200   0.02480   0.05000   0.00000  -0.01500   0.00010
N3871     0.04710   0.02330   0.03030  -0.00200   0.00130  -0.00030
N3872     0.05650   0.02450   0.03410  -0.00140   0.00230   0.00040
C3873     0.07500   0.02400   0.03410  -0.00840   0.01140   0.00570
C3875     0.09300   0.02660   0.03870   0.00000   0.00300   0.00480
C3877     0.13000   0.02540   0.04900   0.00200   0.02800  -0.00310
C3879     0.15200   0.02480   0.05000   0.00000   0.01500  -0.00010
Co3881    0.02490   0.02490   0.02650  -0.00028  -0.00071   0.00071
Co3882    0.02490   0.02490   0.02650  -0.00028   0.00071  -0.00071
Co3883    0.02490   0.02490   0.02650   0.00028  -0.00071  -0.00071
Co3884    0.02490   0.02490   0.02650   0.00028   0.00071   0.00071
C3885     0.01940   0.07600   0.04700   0.00000   0.00000   0.01000
C3886     0.02310   0.06200   0.03900   0.00000   0.00000   0.00900
C3887     0.02250   0.08400   0.04600   0.00000   0.00000   0.03100
C3888     0.02300   0.08800   0.05200   0.00000   0.00000  -0.00900
C3889     0.01940   0.07600   0.04700   0.00000   0.00000  -0.01000
C3890     0.02310   0.06200   0.03900   0.00000   0.00000  -0.00900
C3891     0.02250   0.08400   0.04600   0.00000   0.00000  -0.03100
C3892     0.02300   0.08800   0.05200   0.00000   0.00000   0.00900
C3893     0.07600   0.01940   0.04700   0.00000  -0.01000   0.00000
C3894     0.06200   0.02310   0.03900   0.00000  -0.00900   0.00000
C3895     0.08400   0.02250   0.04600   0.00000  -0.03100   0.00000
C3896     0.08800   0.02300   0.05200   0.00000   0.00900   0.00000
C3897     0.07600   0.01940   0.04700   0.00000   0.01000   0.00000
C3898     0.06200   0.02310   0.03900   0.00000   0.00900   0.00000
C3899     0.08400   0.02250   0.04600   0.00000   0.03100   0.00000
C3900     0.08800   0.02300   0.05200   0.00000  -0.00900   0.00000
N3901     0.02330   0.04710   0.03030  -0.00200  -0.00030   0.00130
N3902     0.02450   0.05650   0.03410  -0.00140   0.00040   0.00230
C3903     0.02400   0.07500   0.03410  -0.00840   0.00570   0.01140
C3905     0.02660   0.09300   0.03870   0.00000   0.00480   0.00300
C3907     0.02540   0.13000   0.04900   0.00200  -0.00310   0.02800
C3909     0.02480   0.15200   0.05000   0.00000  -0.00010   0.01500
N3911     0.02330   0.04710   0.03030  -0.00200   0.00030  -0.00130
N3912     0.02450   0.05650   0.03410  -0.00140  -0.00040  -0.00230
C3913     0.02400   0.07500   0.03410  -0.00840  -0.00570  -0.01140
C3915     0.02660   0.09300   0.03870   0.00000  -0.00480  -0.00300
C3917     0.02540   0.13000   0.04900   0.00200   0.00310  -0.02800
C3919     0.02480   0.15200   0.05000   0.00000   0.00010  -0.01500
N3921     0.04710   0.02330   0.03030   0.00200  -0.00130  -0.00030
N3922     0.05650   0.02450   0.03410   0.00140  -0.00230   0.00040
C3923     0.07500   0.02400   0.03410   0.00840  -0.01140   0.00570
C3925     0.09300   0.02660   0.03870   0.00000  -0.00300   0.00480
C3927     0.13000   0.02540   0.04900  -0.00200  -0.02800  -0.00310
C3929     0.15200   0.02480   0.05000   0.00000  -0.01500  -0.00010
N3931     0.04710   0.02330   0.03030   0.00200   0.00130   0.00030
N3932     0.05650   0.02450   0.03410   0.00140   0.00230  -0.00040
C3933     0.07500   0.02400   0.03410   0.00840   0.01140  -0.00570
C3935     0.09300   0.02660   0.03870   0.00000   0.00300  -0.00480
C3937     0.13000   0.02540   0.04900  -0.00200   0.02800   0.00310
C3939     0.15200   0.02480   0.05000   0.00000   0.01500   0.00010
N3941     0.02330   0.04710   0.03030   0.00200  -0.00030  -0.00130
N3942     0.02450   0.05650   0.03410   0.00140   0.00040  -0.00230
C3943     0.02400   0.07500   0.03410   0.00840   0.00570  -0.01140
C3945     0.02660   0.09300   0.03870   0.00000   0.00480  -0.00300
C3947     0.02540   0.13000   0.04900  -0.00200  -0.00310  -0.02800
C3949     0.02480   0.15200   0.05000   0.00000  -0.00010  -0.01500
N3951     0.02330   0.04710   0.03030   0.00200   0.00030   0.00130
N3952     0.02450   0.05650   0.03410   0.00140  -0.00040   0.00230
C3953     0.02400   0.07500   0.03410   0.00840  -0.00570   0.01140
C3955     0.02660   0.09300   0.03870   0.00000  -0.00480   0.00300
C3957     0.02540   0.13000   0.04900  -0.00200   0.00310   0.02800
C3959     0.02480   0.15200   0.05000   0.00000   0.00010   0.01500
N3961     0.04710   0.02330   0.03030  -0.00200  -0.00130   0.00030
N3962     0.05650   0.02450   0.03410  -0.00140  -0.00230  -0.00040
C3963     0.07500   0.02400   0.03410  -0.00840  -0.01140  -0.00570
C3965     0.09300   0.02660   0.03870   0.00000  -0.00300  -0.00480
C3967     0.13000   0.02540   0.04900   0.00200  -0.02800   0.00310
C3969     0.15200   0.02480   0.05000   0.00000  -0.01500   0.00010
N3971     0.04710   0.02330   0.03030  -0.00200   0.00130  -0.00030
N3972     0.05650   0.02450   0.03410  -0.00140   0.00230   0.00040
C3973     0.07500   0.02400   0.03410  -0.00840   0.01140   0.00570
C3975     0.09300   0.02660   0.03870   0.00000   0.00300   0.00480
C3977     0.13000   0.02540   0.04900   0.00200   0.02800  -0.00310
C3979     0.15200   0.02480   0.05000   0.00000   0.01500  -0.00010
Co3981    0.02490   0.02490   0.02650  -0.00028  -0.00071   0.00071
Co3982    0.02490   0.02490   0.02650  -0.00028   0.00071  -0.00071
Co3983    0.02490   0.02490   0.02650   0.00028  -0.00071  -0.00071
Co3984    0.02490   0.02490   0.02650   0.00028   0.00071   0.00071
C3985     0.01940   0.07600   0.04700   0.00000   0.00000   0.01000
C3986     0.02310   0.06200   0.03900   0.00000   0.00000   0.00900
C3987     0.02250   0.08400   0.04600   0.00000   0.00000   0.03100
C3988     0.02300   0.08800   0.05200   0.00000   0.00000  -0.00900
C3989     0.01940   0.07600   0.04700   0.00000   0.00000  -0.01000
C3990     0.02310   0.06200   0.03900   0.00000   0.00000  -0.00900
C3991     0.02250   0.08400   0.04600   0.00000   0.00000  -0.03100
C3992     0.02300   0.08800   0.05200   0.00000   0.00000   0.00900
C3993     0.07600   0.01940   0.04700   0.00000  -0.01000   0.00000
C3994     0.06200   0.02310   0.03900   0.00000  -0.00900   0.00000
C3995     0.08400   0.02250   0.04600   0.00000  -0.03100   0.00000
C3996     0.08800   0.02300   0.05200   0.00000   0.00900   0.00000
C3997     0.07600   0.01940   0.04700   0.00000   0.01000   0.00000
C3998     0.06200   0.02310   0.03900   0.00000   0.00900   0.00000
C3999     0.08400   0.02250   0.04600   0.00000   0.03100   0.00000
C4000     0.08800   0.02300   0.05200   0.00000  -0.00900   0.00000
N4001     0.02330   0.04710   0.03030  -0.00200  -0.00030   0.00130
N4002     0.02450   0.05650   0.03410  -0.00140   0.00040   0.00230
C4003     0.02400   0.07500   0.03410  -0.00840   0.00570   0.01140
C4005     0.02660   0.09300   0.03870   0.00000   0.00480   0.00300
C4007     0.02540   0.13000   0.04900   0.00200  -0.00310   0.02800
C4009     0.02480   0.15200   0.05000   0.00000  -0.00010   0.01500
N4011     0.02330   0.04710   0.03030  -0.00200   0.00030  -0.00130
N4012     0.02450   0.05650   0.03410  -0.00140  -0.00040  -0.00230
C4013     0.02400   0.07500   0.03410  -0.00840  -0.00570  -0.01140
C4015     0.02660   0.09300   0.03870   0.00000  -0.00480  -0.00300
C4017     0.02540   0.13000   0.04900   0.00200   0.00310  -0.02800
C4019     0.02480   0.15200   0.05000   0.00000   0.00010  -0.01500
N4021     0.04710   0.02330   0.03030   0.00200  -0.00130  -0.00030
N4022     0.05650   0.02450   0.03410   0.00140  -0.00230   0.00040
C4023     0.07500   0.02400   0.03410   0.00840  -0.01140   0.00570
C4025     0.09300   0.02660   0.03870   0.00000  -0.00300   0.00480
C4027     0.13000   0.02540   0.04900  -0.00200  -0.02800  -0.00310
C4029     0.15200   0.02480   0.05000   0.00000  -0.01500  -0.00010
N4031     0.04710   0.02330   0.03030   0.00200   0.00130   0.00030
N4032     0.05650   0.02450   0.03410   0.00140   0.00230  -0.00040
C4033     0.07500   0.02400   0.03410   0.00840   0.01140  -0.00570
C4035     0.09300   0.02660   0.03870   0.00000   0.00300  -0.00480
C4037     0.13000   0.02540   0.04900  -0.00200   0.02800   0.00310
C4039     0.15200   0.02480   0.05000   0.00000   0.01500   0.00010
N4041     0.02330   0.04710   0.03030   0.00200  -0.00030  -0.00130
N4042     0.02450   0.05650   0.03410   0.00140   0.00040  -0.00230
C4043     0.02400   0.07500   0.03410   0.00840   0.00570  -0.01140
C4045     0.02660   0.09300   0.03870   0.00000   0.00480  -0.00300
C4047     0.02540   0.13000   0.04900  -0.00200  -0.00310  -0.02800
C4049     0.02480   0.15200   0.05000   0.00000  -0.00010  -0.01500
N4051     0.02330   0.04710   0.03030   0.00200   0.00030   0.00130
N4052     0.02450   0.05650   0.03410   0.00140  -0.00040   0.00230
C4053     0.02400   0.07500   0.03410   0.00840  -0.00570   0.01140
C4055     0.02660   0.09300   0.03870   0.00000  -0.00480   0.00300
C4057     0.02540   0.13000   0.04900  -0.00200   0.00310   0.02800
C4059     0.02480   0.15200   0.05000   0.00000   0.00010   0.01500
N4061     0.04710   0.02330   0.03030  -0.00200  -0.00130   0.00030
N4062     0.05650   0.02450   0.03410  -0.00140  -0.00230  -0.00040
C4063     0.07500   0.02400   0.03410  -0.00840  -0.01140  -0.00570
C4065     0.09300   0.02660   0.03870   0.00000  -0.00300  -0.00480
C4067     0.13000   0.02540   0.04900   0.00200  -0.02800   0.00310
C4069     0.15200   0.02480   0.05000   0.00000  -0.01500   0.00010
N4071     0.04710   0.02330   0.03030  -0.00200   0.00130  -0.00030
N4072     0.05650   0.02450   0.03410  -0.00140   0.00230   0.00040
C4073     0.07500   0.02400   0.03410  -0.00840   0.01140   0.00570
C4075     0.09300   0.02660   0.03870   0.00000   0.00300   0.00480
C4077     0.13000   0.02540   0.04900   0.00200   0.02800  -0.00310
C4079     0.15200   0.02480   0.05000   0.00000   0.01500  -0.00010
Co4081    0.02490   0.02490   0.02650  -0.00028  -0.00071   0.00071
Co4082    0.02490   0.02490   0.02650  -0.00028   0.00071  -0.00071
Co4083    0.02490   0.02490   0.02650   0.00028  -0.00071  -0.00071
Co4084    0.02490   0.02490   0.02650   0.00028   0.00071   0.00071
C4085     0.01940   0.07600   0.04700   0.00000   0.00000   0.01000
C4086     0.02310   0.06200   0.03900   0.00000   0.00000   0.00900
C4087     0.02250   0.08400   0.04600   0.00000   0.00000   0.03100
C4088     0.02300   0.08800   0.05200   0.00000   0.00000  -0.00900
C4089     0.01940   0.07600   0.04700   0.00000   0.00000  -0.01000
C4090     0.02310   0.06200   0.03900   0.00000   0.00000  -0.00900
C4091     0.02250   0.08400   0.04600   0.00000   0.00000  -0.03100
C4092     0.02300   0.08800   0.05200   0.00000   0.00000   0.00900
C4093     0.07600   0.01940   0.04700   0.00000  -0.01000   0.00000
C4094     0.06200   0.02310   0.03900   0.00000  -0.00900   0.00000
C4095     0.08400   0.02250   0.04600   0.00000  -0.03100   0.00000
C4096     0.08800   0.02300   0.05200   0.00000   0.00900   0.00000
C4097     0.07600   0.01940   0.04700   0.00000   0.01000   0.00000
C4098     0.06200   0.02310   0.03900   0.00000   0.00900   0.00000
C4099     0.08400   0.02250   0.04600   0.00000   0.03100   0.00000
C4100     0.08800   0.02300   0.05200   0.00000  -0.00900   0.00000
N4101     0.02330   0.04710   0.03030  -0.00200  -0.00030   0.00130
N4102     0.02450   0.05650   0.03410  -0.00140   0.00040   0.00230
C4103     0.02400   0.07500   0.03410  -0.00840   0.00570   0.01140
C4105     0.02660   0.09300   0.03870   0.00000   0.00480   0.00300
C4107     0.02540   0.13000   0.04900   0.00200  -0.00310   0.02800
C4109     0.02480   0.15200   0.05000   0.00000  -0.00010   0.01500
N4111     0.02330   0.04710   0.03030  -0.00200   0.00030  -0.00130
N4112     0.02450   0.05650   0.03410  -0.00140  -0.00040  -0.00230
C4113     0.02400   0.07500   0.03410  -0.00840  -0.00570  -0.01140
C4115     0.02660   0.09300   0.03870   0.00000  -0.00480  -0.00300
C4117     0.02540   0.13000   0.04900   0.00200   0.00310  -0.02800
C4119     0.02480   0.15200   0.05000   0.00000   0.00010  -0.01500
N4121     0.04710   0.02330   0.03030   0.00200  -0.00130  -0.00030
N4122     0.05650   0.02450   0.03410   0.00140  -0.00230   0.00040
C4123     0.07500   0.02400   0.03410   0.00840  -0.01140   0.00570
C4125     0.09300   0.02660   0.03870   0.00000  -0.00300   0.00480
C4127     0.13000   0.02540   0.04900  -0.00200  -0.02800  -0.00310
C4129     0.15200   0.02480   0.05000   0.00000  -0.01500  -0.00010
N4131     0.04710   0.02330   0.03030   0.00200   0.00130   0.00030
N4132     0.05650   0.02450   0.03410   0.00140   0.00230  -0.00040
C4133     0.07500   0.02400   0.03410   0.00840   0.01140  -0.00570
C4135     0.09300   0.02660   0.03870   0.00000   0.00300  -0.00480
C4137     0.13000   0.02540   0.04900  -0.00200   0.02800   0.00310
C4139     0.15200   0.02480   0.05000   0.00000   0.01500   0.00010
N4141     0.02330   0.04710   0.03030   0.00200  -0.00030  -0.00130
N4142     0.02450   0.05650   0.03410   0.00140   0.00040  -0.00230
C4143     0.02400   0.07500   0.03410   0.00840   0.00570  -0.01140
C4145     0.02660   0.09300   0.03870   0.00000   0.00480  -0.00300
C4147     0.02540   0.13000   0.04900  -0.00200  -0.00310  -0.02800
C4149     0.02480   0.15200   0.05000   0.00000  -0.00010  -0.01500
N4151     0.02330   0.04710   0.03030   0.00200   0.00030   0.00130
N4152     0.02450   0.05650   0.03410   0.00140  -0.00040   0.00230
C4153     0.02400   0.07500   0.03410   0.00840  -0.00570   0.01140
C4155     0.02660   0.09300   0.03870   0.00000  -0.00480   0.00300
C4157     0.02540   0.13000   0.04900  -0.00200   0.00310   0.02800
C4159     0.02480   0.15200   0.05000   0.00000   0.00010   0.01500
N4161     0.04710   0.02330   0.03030  -0.00200  -0.00130   0.00030
N4162     0.05650   0.02450   0.03410  -0.00140  -0.00230  -0.00040
C4163     0.07500   0.02400   0.03410  -0.00840  -0.01140  -0.00570
C4165     0.09300   0.02660   0.03870   0.00000  -0.00300  -0.00480
C4167     0.13000   0.02540   0.04900   0.00200  -0.02800   0.00310
C4169     0.15200   0.02480   0.05000   0.00000  -0.01500   0.00010
N4171     0.04710   0.02330   0.03030  -0.00200   0.00130  -0.00030
N4172     0.05650   0.02450   0.03410  -0.00140   0.00230   0.00040
C4173     0.07500   0.02400   0.03410  -0.00840   0.01140   0.00570
C4175     0.09300   0.02660   0.03870   0.00000   0.00300   0.00480
C4177     0.13000   0.02540   0.04900   0.00200   0.02800  -0.00310
C4179     0.15200   0.02480   0.05000   0.00000   0.01500  -0.00010
Co4181    0.02490   0.02490   0.02650  -0.00028  -0.00071   0.00071
Co4182    0.02490   0.02490   0.02650  -0.00028   0.00071  -0.00071
Co4183    0.02490   0.02490   0.02650   0.00028  -0.00071  -0.00071
Co4184    0.02490   0.02490   0.02650   0.00028   0.00071   0.00071
C4185     0.01940   0.07600   0.04700   0.00000   0.00000   0.01000
C4186     0.02310   0.06200   0.03900   0.00000   0.00000   0.00900
C4187     0.02250   0.08400   0.04600   0.00000   0.00000   0.03100
C4188     0.02300   0.08800   0.05200   0.00000   0.00000  -0.00900
C4189     0.01940   0.07600   0.04700   0.00000   0.00000  -0.01000
C4190     0.02310   0.06200   0.03900   0.00000   0.00000  -0.00900
C4191     0.02250   0.08400   0.04600   0.00000   0.00000  -0.03100
C4192     0.02300   0.08800   0.05200   0.00000   0.00000   0.00900
C4193     0.07600   0.01940   0.04700   0.00000  -0.01000   0.00000
C4194     0.06200   0.02310   0.03900   0.00000  -0.00900   0.00000
C4195     0.08400   0.02250   0.04600   0.00000  -0.03100   0.00000
C4196     0.08800   0.02300   0.05200   0.00000   0.00900   0.00000
C4197     0.07600   0.01940   0.04700   0.00000   0.01000   0.00000
C4198     0.06200   0.02310   0.03900   0.00000   0.00900   0.00000
C4199     0.08400   0.02250   0.04600   0.00000   0.03100   0.00000
C4200     0.08800   0.02300   0.05200   0.00000  -0.00900   0.00000
N4201     0.02330   0.04710   0.03030  -0.00200  -0.00030   0.00130
N4202     0.02450   0.05650   0.03410  -0.00140   0.00040   0.00230
C4203     0.02400   0.07500   0.03410  -0.00840   0.00570   0.01140
C4205     0.02660   0.09300   0.03870   0.00000   0.00480   0.00300
C4207     0.02540   0.13000   0.04900   0.00200  -0.00310   0.02800
C4209     0.02480   0.15200   0.05000   0.00000  -0.00010   0.01500
N4211     0.02330   0.04710   0.03030  -0.00200   0.00030  -0.00130
N4212     0.02450   0.05650   0.03410  -0.00140  -0.00040  -0.00230
C4213     0.02400   0.07500   0.03410  -0.00840  -0.00570  -0.01140
C4215     0.02660   0.09300   0.03870   0.00000  -0.00480  -0.00300
C4217     0.02540   0.13000   0.04900   0.00200   0.00310  -0.02800
C4219     0.02480   0.15200   0.05000   0.00000   0.00010  -0.01500
N4221     0.04710   0.02330   0.03030   0.00200  -0.00130  -0.00030
N4222     0.05650   0.02450   0.03410   0.00140  -0.00230   0.00040
C4223     0.07500   0.02400   0.03410   0.00840  -0.01140   0.00570
C4225     0.09300   0.02660   0.03870   0.00000  -0.00300   0.00480
C4227     0.13000   0.02540   0.04900  -0.00200  -0.02800  -0.00310
C4229     0.15200   0.02480   0.05000   0.00000  -0.01500  -0.00010
N4231     0.04710   0.02330   0.03030   0.00200   0.00130   0.00030
N4232     0.05650   0.02450   0.03410   0.00140   0.00230  -0.00040
C4233     0.07500   0.02400   0.03410   0.00840   0.01140  -0.00570
C4235     0.09300   0.02660   0.03870   0.00000   0.00300  -0.00480
C4237     0.13000   0.02540   0.04900  -0.00200   0.02800   0.00310
C4239     0.15200   0.02480   0.05000   0.00000   0.01500   0.00010
N4241     0.02330   0.04710   0.03030   0.00200  -0.00030  -0.00130
N4242     0.02450   0.05650   0.03410   0.00140   0.00040  -0.00230
C4243     0.02400   0.07500   0.03410   0.00840   0.00570  -0.01140
C4245     0.02660   0.09300   0.03870   0.00000   0.00480  -0.00300
C4247     0.02540   0.13000   0.04900  -0.00200  -0.00310  -0.02800
C4249     0.02480   0.15200   0.05000   0.00000  -0.00010  -0.01500
N4251     0.02330   0.04710   0.03030   0.00200   0.00030   0.00130
N4252     0.02450   0.05650   0.03410   0.00140  -0.00040   0.00230
C4253     0.02400   0.07500   0.03410   0.00840  -0.00570   0.01140
C4255     0.02660   0.09300   0.03870   0.00000  -0.00480   0.00300
C4257     0.02540   0.13000   0.04900  -0.00200   0.00310   0.02800
C4259     0.02480   0.15200   0.05000   0.00000   0.00010   0.01500
N4261     0.04710   0.02330   0.03030  -0.00200  -0.00130   0.00030
N4262     0.05650   0.02450   0.03410  -0.00140  -0.00230  -0.00040
C4263     0.07500   0.02400   0.03410  -0.00840  -0.01140  -0.00570
C4265     0.09300   0.02660   0.03870   0.00000  -0.00300  -0.00480
C4267     0.13000   0.02540   0.04900   0.00200  -0.02800   0.00310
C4269     0.15200   0.02480   0.05000   0.00000  -0.01500   0.00010
N4271     0.04710   0.02330   0.03030  -0.00200   0.00130  -0.00030
N4272     0.05650   0.02450   0.03410  -0.00140   0.00230   0.00040
C4273     0.07500   0.02400   0.03410  -0.00840   0.01140   0.00570
C4275     0.09300   0.02660   0.03870   0.00000   0.00300   0.00480
C4277     0.13000   0.02540   0.04900   0.00200   0.02800  -0.00310
C4279     0.15200   0.02480   0.05000   0.00000   0.01500  -0.00010
Co4281    0.02490   0.02490   0.02650  -0.00028  -0.00071   0.00071
Co4282    0.02490   0.02490   0.02650  -0.00028   0.00071  -0.00071
Co4283    0.02490   0.02490   0.02650   0.00028  -0.00071  -0.00071
Co4284    0.02490   0.02490   0.02650   0.00028   0.00071   0.00071
C4285     0.01940   0.07600   0.04700   0.00000   0.00000   0.01000
C4286     0.02310   0.06200   0.03900   0.00000   0.00000   0.00900
C4287     0.02250   0.08400   0.04600   0.00000   0.00000   0.03100
C4288     0.02300   0.08800   0.05200   0.00000   0.00000  -0.00900
C4289     0.01940   0.07600   0.04700   0.00000   0.00000  -0.01000
C4290     0.02310   0.06200   0.03900   0.00000   0.00000  -0.00900
C4291     0.02250   0.08400   0.04600   0.00000   0.00000  -0.03100
C4292     0.02300   0.08800   0.05200   0.00000   0.00000   0.00900
C4293     0.07600   0.01940   0.04700   0.00000  -0.01000   0.00000
C4294     0.06200   0.02310   0.03900   0.00000  -0.00900   0.00000
C4295     0.08400   0.02250   0.04600   0.00000  -0.03100   0.00000
C4296     0.08800   0.02300   0.05200   0.00000   0.00900   0.00000
C4297     0.07600   0.01940   0.04700   0.00000   0.01000   0.00000
C4298     0.06200   0.02310   0.03900   0.00000   0.00900   0.00000
C4299     0.08400   0.02250   0.04600   0.00000   0.03100   0.00000
C4300     0.08800   0.02300   0.05200   0.00000  -0.00900   0.00000
N4301     0.02330   0.04710   0.03030  -0.00200  -0.00030   0.00130
N4302     0.02450   0.05650   0.03410  -0.00140   0.00040   0.00230
C4303     0.02400   0.07500   0.03410  -0.00840   0.00570   0.01140
C4305     0.02660   0.09300   0.03870   0.00000   0.00480   0.00300
C4307     0.02540   0.13000   0.04900   0.00200  -0.00310   0.02800
C4309     0.02480   0.15200   0.05000   0.00000  -0.00010   0.01500
N4311     0.02330   0.04710   0.03030  -0.00200   0.00030  -0.00130
N4312     0.02450   0.05650   0.03410  -0.00140  -0.00040  -0.00230
C4313     0.02400   0.07500   0.03410  -0.00840  -0.00570  -0.01140
C4315     0.02660   0.09300   0.03870   0.00000  -0.00480  -0.00300
C4317     0.02540   0.13000   0.04900   0.00200   0.00310  -0.02800
C4319     0.02480   0.15200   0.05000   0.00000   0.00010  -0.01500
N4321     0.04710   0.02330   0.03030   0.00200  -0.00130  -0.00030
N4322     0.05650   0.02450   0.03410   0.00140  -0.00230   0.00040
C4323     0.07500   0.02400   0.03410   0.00840  -0.01140   0.00570
C4325     0.09300   0.02660   0.03870   0.00000  -0.00300   0.00480
C4327     0.13000   0.02540   0.04900  -0.00200  -0.02800  -0.00310
C4329     0.15200   0.02480   0.05000   0.00000  -0.01500  -0.00010
N4331     0.04710   0.02330   0.03030   0.00200   0.00130   0.00030
N4332     0.05650   0.02450   0.03410   0.00140   0.00230  -0.00040
C4333     0.07500   0.02400   0.03410   0.00840   0.01140  -0.00570
C4335     0.09300   0.02660   0.03870   0.00000   0.00300  -0.00480
C4337     0.13000   0.02540   0.04900  -0.00200   0.02800   0.00310
C4339     0.15200   0.02480   0.05000   0.00000   0.01500   0.00010
N4341     0.02330   0.04710   0.03030   0.00200  -0.00030  -0.00130
N4342     0.02450   0.05650   0.03410   0.00140   0.00040  -0.00230
C4343     0.02400   0.07500   0.03410   0.00840   0.00570  -0.01140
C4345     0.02660   0.09300   0.03870   0.00000   0.00480  -0.00300
C4347     0.02540   0.13000   0.04900  -0.00200  -0.00310  -0.02800
C4349     0.02480   0.15200   0.05000   0.00000  -0.00010  -0.01500
N4351     0.02330   0.04710   0.03030   0.00200   0.00030   0.00130
N4352     0.02450   0.05650   0.03410   0.00140  -0.00040   0.00230
C4353     0.02400   0.07500   0.03410   0.00840  -0.00570   0.01140
C4355     0.02660   0.09300   0.03870   0.00000  -0.00480   0.00300
C4357     0.02540   0.13000   0.04900  -0.00200   0.00310   0.02800
C4359     0.02480   0.15200   0.05000   0.00000   0.00010   0.01500
N4361     0.04710   0.02330   0.03030  -0.00200  -0.00130   0.00030
N4362     0.05650   0.02450   0.03410  -0.00140  -0.00230  -0.00040
C4363     0.07500   0.02400   0.03410  -0.00840  -0.01140  -0.00570
C4365     0.09300   0.02660   0.03870   0.00000  -0.00300  -0.00480
C4367     0.13000   0.02540   0.04900   0.00200  -0.02800   0.00310
C4369     0.15200   0.02480   0.05000   0.00000  -0.01500   0.00010
N4371     0.04710   0.02330   0.03030  -0.00200   0.00130  -0.00030
N4372     0.05650   0.02450   0.03410  -0.00140   0.00230   0.00040
C4373     0.07500   0.02400   0.03410  -0.00840   0.01140   0.00570
C4375     0.09300   0.02660   0.03870   0.00000   0.00300   0.00480
C4377     0.13000   0.02540   0.04900   0.00200   0.02800  -0.00310
C4379     0.15200   0.02480   0.05000   0.00000   0.01500  -0.00010
Co4381    0.02490   0.02490   0.02650  -0.00028  -0.00071   0.00071
Co4382    0.02490   0.02490   0.02650  -0.00028   0.00071  -0.00071
Co4383    0.02490   0.02490   0.02650   0.00028  -0.00071  -0.00071
Co4384    0.02490   0.02490   0.02650   0.00028   0.00071   0.00071
C4385     0.01940   0.07600   0.04700   0.00000   0.00000   0.01000
C4386     0.02310   0.06200   0.03900   0.00000   0.00000   0.00900
C4387     0.02250   0.08400   0.04600   0.00000   0.00000   0.03100
C4388     0.02300   0.08800   0.05200   0.00000   0.00000  -0.00900
C4389     0.01940   0.07600   0.04700   0.00000   0.00000  -0.01000
C4390     0.02310   0.06200   0.03900   0.00000   0.00000  -0.00900
C4391     0.02250   0.08400   0.04600   0.00000   0.00000  -0.03100
C4392     0.02300   0.08800   0.05200   0.00000   0.00000   0.00900
C4393     0.07600   0.01940   0.04700   0.00000  -0.01000   0.00000
C4394     0.06200   0.02310   0.03900   0.00000  -0.00900   0.00000
C4395     0.08400   0.02250   0.04600   0.00000  -0.03100   0.00000
C4396     0.08800   0.02300   0.05200   0.00000   0.00900   0.00000
C4397     0.07600   0.01940   0.04700   0.00000   0.01000   0.00000
C4398     0.06200   0.02310   0.03900   0.00000   0.00900   0.00000
C4399     0.08400   0.02250   0.04600   0.00000   0.03100   0.00000
C4400     0.08800   0.02300   0.05200   0.00000  -0.00900   0.00000
N4401     0.02330   0.04710   0.03030  -0.00200  -0.00030   0.00130
N4402     0.02450   0.05650   0.03410  -0.00140   0.00040   0.00230
C4403     0.02400   0.07500   0.03410  -0.00840   0.00570   0.01140
C4405     0.02660   0.09300   0.03870   0.00000   0.00480   0.00300
C4407     0.02540   0.13000   0.04900   0.00200  -0.00310   0.02800
C4409     0.02480   0.15200   0.05000   0.00000  -0.00010   0.01500
N4411     0.02330   0.04710   0.03030  -0.00200   0.00030  -0.00130
N4412     0.02450   0.05650   0.03410  -0.00140  -0.00040  -0.00230
C4413     0.02400   0.07500   0.03410  -0.00840  -0.00570  -0.01140
C4415     0.02660   0.09300   0.03870   0.00000  -0.00480  -0.00300
C4417     0.02540   0.13000   0.04900   0.00200   0.00310  -0.02800
C4419     0.02480   0.15200   0.05000   0.00000   0.00010  -0.01500
N4421     0.04710   0.02330   0.03030   0.00200  -0.00130  -0.00030
N4422     0.05650   0.02450   0.03410   0.00140  -0.00230   0.00040
C4423     0.07500   0.02400   0.03410   0.00840  -0.01140   0.00570
C4425     0.09300   0.02660   0.03870   0.00000  -0.00300   0.00480
C4427     0.13000   0.02540   0.04900  -0.00200  -0.02800  -0.00310
C4429     0.15200   0.02480   0.05000   0.00000  -0.01500  -0.00010
N4431     0.04710   0.02330   0.03030   0.00200   0.00130   0.00030
N4432     0.05650   0.02450   0.03410   0.00140   0.00230  -0.00040
C4433     0.07500   0.02400   0.03410   0.00840   0.01140  -0.00570
C4435     0.09300   0.02660   0.03870   0.00000   0.00300  -0.00480
C4437     0.13000   0.02540   0.04900  -0.00200   0.02800   0.00310
C4439     0.15200   0.02480   0.05000   0.00000   0.01500   0.00010
N4441     0.02330   0.04710   0.03030   0.00200  -0.00030  -0.00130
N4442     0.02450   0.05650   0.03410   0.00140   0.00040  -0.00230
C4443     0.02400   0.07500   0.03410   0.00840   0.00570  -0.01140
C4445     0.02660   0.09300   0.03870   0.00000   0.00480  -0.00300
C4447     0.02540   0.13000   0.04900  -0.00200  -0.00310  -0.02800
C4449     0.02480   0.15200   0.05000   0.00000  -0.00010  -0.01500
N4451     0.02330   0.04710   0.03030   0.00200   0.00030   0.00130
N4452     0.02450   0.05650   0.03410   0.00140  -0.00040   0.00230
C4453     0.02400   0.07500   0.03410   0.00840  -0.00570   0.01140
C4455     0.02660   0.09300   0.03870   0.00000  -0.00480   0.00300
C4457     0.02540   0.13000   0.04900  -0.00200   0.00310   0.02800
C4459     0.02480   0.15200   0.05000   0.00000   0.00010   0.01500
N4461     0.04710   0.02330   0.03030  -0.00200  -0.00130   0.00030
N4462     0.05650   0.02450   0.03410  -0.00140  -0.00230  -0.00040
C4463     0.07500   0.02400   0.03410  -0.00840  -0.01140  -0.00570
C4465     0.09300   0.02660   0.03870   0.00000  -0.00300  -0.00480
C4467     0.13000   0.02540   0.04900   0.00200  -0.02800   0.00310
C4469     0.15200   0.02480   0.05000   0.00000  -0.01500   0.00010
N4471     0.04710   0.02330   0.03030  -0.00200   0.00130  -0.00030
N4472     0.05650   0.02450   0.03410  -0.00140   0.00230   0.00040
C4473     0.07500   0.02400   0.03410  -0.00840   0.01140   0.00570
C4475     0.09300   0.02660   0.03870   0.00000   0.00300   0.00480
C4477     0.13000   0.02540   0.04900   0.00200   0.02800  -0.00310
C4479     0.15200   0.02480   0.05000   0.00000   0.01500  -0.00010
Co4481    0.02490   0.02490   0.02650  -0.00028  -0.00071   0.00071
Co4482    0.02490   0.02490   0.02650  -0.00028   0.00071  -0.00071
Co4483    0.02490   0.02490   0.02650   0.00028  -0.00071  -0.00071
Co4484    0.02490   0.02490   0.02650   0.00028   0.00071   0.00071
C4485     0.01940   0.07600   0.04700   0.00000   0.00000   0.01000
C4486     0.02310   0.06200   0.03900   0.00000   0.00000   0.00900
C4487     0.02250   0.08400   0.04600   0.00000   0.00000   0.03100
C4488     0.02300   0.08800   0.05200   0.00000   0.00000  -0.00900
C4489     0.01940   0.07600   0.04700   0.00000   0.00000  -0.01000
C4490     0.02310   0.06200   0.03900   0.00000   0.00000  -0.00900
C4491     0.02250   0.08400   0.04600   0.00000   0.00000  -0.03100
C4492     0.02300   0.08800   0.05200   0.00000   0.00000   0.00900
C4493     0.07600   0.01940   0.04700   0.00000  -0.01000   0.00000
C4494     0.06200   0.02310   0.03900   0.00000  -0.00900   0.00000
C4495     0.08400   0.02250   0.04600   0.00000  -0.03100   0.00000
C4496     0.08800   0.02300   0.05200   0.00000   0.00900   0.00000
C4497     0.07600   0.01940   0.04700   0.00000   0.01000   0.00000
C4498     0.06200   0.02310   0.03900   0.00000   0.00900   0.00000
C4499     0.08400   0.02250   0.04600   0.00000   0.03100   0.00000
C4500     0.08800   0.02300   0.05200   0.00000  -0.00900   0.00000
N4501     0.02330   0.04710   0.03030  -0.00200  -0.00030   0.00130
N4502     0.02450   0.05650   0.03410  -0.00140   0.00040   0.00230
C4503     0.02400   0.07500   0.03410  -0.00840   0.00570   0.01140
C4505     0.02660   0.09300   0.03870   0.00000   0.00480   0.00300
C4507     0.02540   0.13000   0.04900   0.00200  -0.00310   0.02800
C4509     0.02480   0.15200   0.05000   0.00000  -0.00010   0.01500
N4511     0.02330   0.04710   0.03030  -0.00200   0.00030  -0.00130
N4512     0.02450   0.05650   0.03410  -0.00140  -0.00040  -0.00230
C4513     0.02400   0.07500   0.03410  -0.00840  -0.00570  -0.01140
C4515     0.02660   0.09300   0.03870   0.00000  -0.00480  -0.00300
C4517     0.02540   0.13000   0.04900   0.00200   0.00310  -0.02800
C4519     0.02480   0.15200   0.05000   0.00000   0.00010  -0.01500
N4521     0.04710   0.02330   0.03030   0.00200  -0.00130  -0.00030
N4522     0.05650   0.02450   0.03410   0.00140  -0.00230   0.00040
C4523     0.07500   0.02400   0.03410   0.00840  -0.01140   0.00570
C4525     0.09300   0.02660   0.03870   0.00000  -0.00300   0.00480
C4527     0.13000   0.02540   0.04900  -0.00200  -0.02800  -0.00310
C4529     0.15200   0.02480   0.05000   0.00000  -0.01500  -0.00010
N4531     0.04710   0.02330   0.03030   0.00200   0.00130   0.00030
N4532     0.05650   0.02450   0.03410   0.00140   0.00230  -0.00040
C4533     0.07500   0.02400   0.03410   0.00840   0.01140  -0.00570
C4535     0.09300   0.02660   0.03870   0.00000   0.00300  -0.00480
C4537     0.13000   0.02540   0.04900  -0.00200   0.02800   0.00310
C4539     0.15200   0.02480   0.05000   0.00000   0.01500   0.00010
N4541     0.02330   0.04710   0.03030   0.00200  -0.00030  -0.00130
N4542     0.02450   0.05650   0.03410   0.00140   0.00040  -0.00230
C4543     0.02400   0.07500   0.03410   0.00840   0.00570  -0.01140
C4545     0.02660   0.09300   0.03870   0.00000   0.00480  -0.00300
C4547     0.02540   0.13000   0.04900  -0.00200  -0.00310  -0.02800
C4549     0.02480   0.15200   0.05000   0.00000  -0.00010  -0.01500
N4551     0.02330   0.04710   0.03030   0.00200   0.00030   0.00130
N4552     0.02450   0.05650   0.03410   0.00140  -0.00040   0.00230
C4553     0.02400   0.07500   0.03410   0.00840  -0.00570   0.01140
C4555     0.02660   0.09300   0.03870   0.00000  -0.00480   0.00300
C4557     0.02540   0.13000   0.04900  -0.00200   0.00310   0.02800
C4559     0.02480   0.15200   0.05000   0.00000   0.00010   0.01500
N4561     0.04710   0.02330   0.03030  -0.00200  -0.00130   0.00030
N4562     0.05650   0.02450   0.03410  -0.00140  -0.00230  -0.00040
C4563     0.07500   0.02400   0.03410  -0.00840  -0.01140  -0.00570
C4565     0.09300   0.02660   0.03870   0.00000  -0.00300  -0.00480
C4567     0.13000   0.02540   0.04900   0.00200  -0.02800   0.00310
C4569     0.15200   0.02480   0.05000   0.00000  -0.01500   0.00010
N4571     0.04710   0.02330   0.03030  -0.00200   0.00130  -0.00030
N4572     0.05650   0.02450   0.03410  -0.00140   0.00230   0.00040
C4573     0.07500   0.02400   0.03410  -0.00840   0.01140   0.00570
C4575     0.09300   0.02660   0.03870   0.00000   0.00300   0.00480
C4577     0.13000   0.02540   0.04900   0.00200   0.02800  -0.00310
C4579     0.15200   0.02480   0.05000   0.00000   0.01500  -0.00010
Co4581    0.02490   0.02490   0.02650  -0.00028  -0.00071   0.00071
Co4582    0.02490   0.02490   0.02650  -0.00028   0.00071  -0.00071
Co4583    0.02490   0.02490   0.02650   0.00028  -0.00071  -0.00071
Co4584    0.02490   0.02490   0.02650   0.00028   0.00071   0.00071
C4585     0.01940   0.07600   0.04700   0.00000   0.00000   0.01000
C4586     0.02310   0.06200   0.03900   0.00000   0.00000   0.00900
C4587     0.02250   0.08400   0.04600   0.00000   0.00000   0.03100
C4588     0.02300   0.08800   0.05200   0.00000   0.00000  -0.00900
C4589     0.01940   0.07600   0.04700   0.00000   0.00000  -0.01000
C4590     0.02310   0.06200   0.03900   0.00000   0.00000  -0.00900
C4591     0.02250   0.08400   0.04600   0.00000   0.00000  -0.03100
C4592     0.02300   0.08800   0.05200   0.00000   0.00000   0.00900
C4593     0.07600   0.01940   0.04700   0.00000  -0.01000   0.00000
C4594     0.06200   0.02310   0.03900   0.00000  -0.00900   0.00000
C4595     0.08400   0.02250   0.04600   0.00000  -0.03100   0.00000
C4596     0.08800   0.02300   0.05200   0.00000   0.00900   0.00000
C4597     0.07600   0.01940   0.04700   0.00000   0.01000   0.00000
C4598     0.06200   0.02310   0.03900   0.00000   0.00900   0.00000
C4599     0.08400   0.02250   0.04600   0.00000   0.03100   0.00000
C4600     0.08800   0.02300   0.05200   0.00000  -0.00900   0.00000
N4601     0.02330   0.04710   0.03030  -0.00200  -0.00030   0.00130
N4602     0.02450   0.05650   0.03410  -0.00140   0.00040   0.00230
C4603     0.02400   0.07500   0.03410  -0.00840   0.00570   0.01140
C4605     0.02660   0.09300   0.03870   0.00000   0.00480   0.00300
C4607     0.02540   0.13000   0.04900   0.00200  -0.00310   0.02800
C4609     0.02480   0.15200   0.05000   0.00000  -0.00010   0.01500
N4611     0.02330   0.04710   0.03030  -0.00200   0.00030  -0.00130
N4612     0.02450   0.05650   0.03410  -0.00140  -0.00040  -0.00230
C4613     0.02400   0.07500   0.03410  -0.00840  -0.00570  -0.01140
C4615     0.02660   0.09300   0.03870   0.00000  -0.00480  -0.00300
C4617     0.02540   0.13000   0.04900   0.00200   0.00310  -0.02800
C4619     0.02480   0.15200   0.05000   0.00000   0.00010  -0.01500
N4621     0.04710   0.02330   0.03030   0.00200  -0.00130  -0.00030
N4622     0.05650   0.02450   0.03410   0.00140  -0.00230   0.00040
C4623     0.07500   0.02400   0.03410   0.00840  -0.01140   0.00570
C4625     0.09300   0.02660   0.03870   0.00000  -0.00300   0.00480
C4627     0.13000   0.02540   0.04900  -0.00200  -0.02800  -0.00310
C4629     0.15200   0.02480   0.05000   0.00000  -0.01500  -0.00010
N4631     0.04710   0.02330   0.03030   0.00200   0.00130   0.00030
N4632     0.05650   0.02450   0.03410   0.00140   0.00230  -0.00040
C4633     0.07500   0.02400   0.03410   0.00840   0.01140  -0.00570
C4635     0.09300   0.02660   0.03870   0.00000   0.00300  -0.00480
C4637     0.13000   0.02540   0.04900  -0.00200   0.02800   0.00310
C4639     0.15200   0.02480   0.05000   0.00000   0.01500   0.00010
N4641     0.02330   0.04710   0.03030   0.00200  -0.00030  -0.00130
N4642     0.02450   0.05650   0.03410   0.00140   0.00040  -0.00230
C4643     0.02400   0.07500   0.03410   0.00840   0.00570  -0.01140
C4645     0.02660   0.09300   0.03870   0.00000   0.00480  -0.00300
C4647     0.02540   0.13000   0.04900  -0.00200  -0.00310  -0.02800
C4649     0.02480   0.15200   0.05000   0.00000  -0.00010  -0.01500
N4651     0.02330   0.04710   0.03030   0.00200   0.00030   0.00130
N4652     0.02450   0.05650   0.03410   0.00140  -0.00040   0.00230
C4653     0.02400   0.07500   0.03410   0.00840  -0.00570   0.01140
C4655     0.02660   0.09300   0.03870   0.00000  -0.00480   0.00300
C4657     0.02540   0.13000   0.04900  -0.00200   0.00310   0.02800
C4659     0.02480   0.15200   0.05000   0.00000   0.00010   0.01500
N4661     0.04710   0.02330   0.03030  -0.00200  -0.00130   0.00030
N4662     0.05650   0.02450   0.03410  -0.00140  -0.00230  -0.00040
C4663     0.07500   0.02400   0.03410  -0.00840  -0.01140  -0.00570
C4665     0.09300   0.02660   0.03870   0.00000  -0.00300  -0.00480
C4667     0.13000   0.02540   0.04900   0.00200  -0.02800   0.00310
C4669     0.15200   0.02480   0.05000   0.00000  -0.01500   0.00010
N4671     0.04710   0.02330   0.03030  -0.00200   0.00130  -0.00030
N4672     0.05650   0.02450   0.03410  -0.00140   0.00230   0.00040
C4673     0.07500   0.02400   0.03410  -0.00840   0.01140   0.00570
C4675     0.09300   0.02660   0.03870   0.00000   0.00300   0.00480
C4677     0.13000   0.02540   0.04900   0.00200   0.02800  -0.00310
C4679     0.15200   0.02480   0.05000   0.00000   0.01500  -0.00010
Co4681    0.02490   0.02490   0.02650  -0.00028  -0.00071   0.00071
Co4682    0.02490   0.02490   0.02650  -0.00028   0.00071  -0.00071
Co4683    0.02490   0.02490   0.02650   0.00028  -0.00071  -0.00071
Co4684    0.02490   0.02490   0.02650   0.00028   0.00071   0.00071
C4685     0.01940   0.07600   0.04700   0.00000   0.00000   0.01000
C4686     0.02310   0.06200   0.03900   0.00000   0.00000   0.00900
C4687     0.02250   0.08400   0.04600   0.00000   0.00000   0.03100
C4688     0.02300   0.08800   0.05200   0.00000   0.00000  -0.00900
C4689     0.01940   0.07600   0.04700   0.00000   0.00000  -0.01000
C4690     0.02310   0.06200   0.03900   0.00000   0.00000  -0.00900
C4691     0.02250   0.08400   0.04600   0.00000   0.00000  -0.03100
C4692     0.02300   0.08800   0.05200   0.00000   0.00000   0.00900
C4693     0.07600   0.01940   0.04700   0.00000  -0.01000   0.00000
C4694     0.06200   0.02310   0.03900   0.00000  -0.00900   0.00000
C4695     0.08400   0.02250   0.04600   0.00000  -0.03100   0.00000
C4696     0.08800   0.02300   0.05200   0.00000   0.00900   0.00000
C4697     0.07600   0.01940   0.04700   0.00000   0.01000   0.00000
C4698     0.06200   0.02310   0.03900   0.00000   0.00900   0.00000
C4699     0.08400   0.02250   0.04600   0.00000   0.03100   0.00000
C4700     0.08800   0.02300   0.05200   0.00000  -0.00900   0.00000
N4701     0.02330   0.04710   0.03030  -0.00200  -0.00030   0.00130
N4702     0.02450   0.05650   0.03410  -0.00140   0.00040   0.00230
C4703     0.02400   0.07500   0.03410  -0.00840   0.00570   0.01140
C4705     0.02660   0.09300   0.03870   0.00000   0.00480   0.00300
C4707     0.02540   0.13000   0.04900   0.00200  -0.00310   0.02800
C4709     0.02480   0.15200   0.05000   0.00000  -0.00010   0.01500
N4711     0.02330   0.04710   0.03030  -0.00200   0.00030  -0.00130
N4712     0.02450   0.05650   0.03410  -0.00140  -0.00040  -0.00230
C4713     0.02400   0.07500   0.03410  -0.00840  -0.00570  -0.01140
C4715     0.02660   0.09300   0.03870   0.00000  -0.00480  -0.00300
C4717     0.02540   0.13000   0.04900   0.00200   0.00310  -0.02800
C4719     0.02480   0.15200   0.05000   0.00000   0.00010  -0.01500
N4721     0.04710   0.02330   0.03030   0.00200  -0.00130  -0.00030
N4722     0.05650   0.02450   0.03410   0.00140  -0.00230   0.00040
C4723     0.07500   0.02400   0.03410   0.00840  -0.01140   0.00570
C4725     0.09300   0.02660   0.03870   0.00000  -0.00300   0.00480
C4727     0.13000   0.02540   0.04900  -0.00200  -0.02800  -0.00310
C4729     0.15200   0.02480   0.05000   0.00000  -0.01500  -0.00010
N4731     0.04710   0.02330   0.03030   0.00200   0.00130   0.00030
N4732     0.05650   0.02450   0.03410   0.00140   0.00230  -0.00040
C4733     0.07500   0.02400   0.03410   0.00840   0.01140  -0.00570
C4735     0.09300   0.02660   0.03870   0.00000   0.00300  -0.00480
C4737     0.13000   0.02540   0.04900  -0.00200   0.02800   0.00310
C4739     0.15200   0.02480   0.05000   0.00000   0.01500   0.00010
N4741     0.02330   0.04710   0.03030   0.00200  -0.00030  -0.00130
N4742     0.02450   0.05650   0.03410   0.00140   0.00040  -0.00230
C4743     0.02400   0.07500   0.03410   0.00840   0.00570  -0.01140
C4745     0.02660   0.09300   0.03870   0.00000   0.00480  -0.00300
C4747     0.02540   0.13000   0.04900  -0.00200  -0.00310  -0.02800
C4749     0.02480   0.15200   0.05000   0.00000  -0.00010  -0.01500
N4751     0.02330   0.04710   0.03030   0.00200   0.00030   0.00130
N4752     0.02450   0.05650   0.03410   0.00140  -0.00040   0.00230
C4753     0.02400   0.07500   0.03410   0.00840  -0.00570   0.01140
C4755     0.02660   0.09300   0.03870   0.00000  -0.00480   0.00300
C4757     0.02540   0.13000   0.04900  -0.00200   0.00310   0.02800
C4759     0.02480   0.15200   0.05000   0.00000   0.00010   0.01500
N4761     0.04710   0.02330   0.03030  -0.00200  -0.00130   0.00030
N4762     0.05650   0.02450   0.03410  -0.00140  -0.00230  -0.00040
C4763     0.07500   0.02400   0.03410  -0.00840  -0.01140  -0.00570
C4765     0.09300   0.02660   0.03870   0.00000  -0.00300  -0.00480
C4767     0.13000   0.02540   0.04900   0.00200  -0.02800   0.00310
C4769     0.15200   0.02480   0.05000   0.00000  -0.01500   0.00010
N4771     0.04710   0.02330   0.03030  -0.00200   0.00130  -0.00030
N4772     0.05650   0.02450   0.03410  -0.00140   0.00230   0.00040
C4773     0.07500   0.02400   0.03410  -0.00840   0.01140   0.00570
C4775     0.09300   0.02660   0.03870   0.00000   0.00300   0.00480
C4777     0.13000   0.02540   0.04900   0.00200   0.02800  -0.00310
C4779     0.15200   0.02480   0.05000   0.00000   0.01500  -0.00010
Co4781    0.02490   0.02490   0.02650  -0.00028  -0.00071   0.00071
Co4782    0.02490   0.02490   0.02650  -0.00028   0.00071  -0.00071
Co4783    0.02490   0.02490   0.02650   0.00028  -0.00071  -0.00071
Co4784    0.02490   0.02490   0.02650   0.00028   0.00071   0.00071
C4785     0.01940   0.07600   0.04700   0.00000   0.00000   0.01000
C4786     0.02310   0.06200   0.03900   0.00000   0.00000   0.00900
C4787     0.02250   0.08400   0.04600   0.00000   0.00000   0.03100
C4788     0.02300   0.08800   0.05200   0.00000   0.00000  -0.00900
C4789     0.01940   0.07600   0.04700   0.00000   0.00000  -0.01000
C4790     0.02310   0.06200   0.03900   0.00000   0.00000  -0.00900
C4791     0.02250   0.08400   0.04600   0.00000   0.00000  -0.03100
C4792     0.02300   0.08800   0.05200   0.00000   0.00000   0.00900
C4793     0.07600   0.01940   0.04700   0.00000  -0.01000   0.00000
C4794     0.06200   0.02310   0.03900   0.00000  -0.00900   0.00000
C4795     0.08400   0.02250   0.04600   0.00000  -0.03100   0.00000
C4796     0.08800   0.02300   0.05200   0.00000   0.00900   0.00000
C4797     0.07600   0.01940   0.04700   0.00000   0.01000   0.00000
C4798     0.06200   0.02310   0.03900   0.00000   0.00900   0.00000
C4799     0.08400   0.02250   0.04600   0.00000   0.03100   0.00000
C4800     0.08800   0.02300   0.05200   0.00000  -0.00900   0.00000
N4801     0.02330   0.04710   0.03030  -0.00200  -0.00030   0.00130
N4802     0.02450   0.05650   0.03410  -0.00140   0.00040   0.00230
C4803     0.02400   0.07500   0.03410  -0.00840   0.00570   0.01140
C4805     0.02660   0.09300   0.03870   0.00000   0.00480   0.00300
C4807     0.02540   0.13000   0.04900   0.00200  -0.00310   0.02800
C4809     0.02480   0.15200   0.05000   0.00000  -0.00010   0.01500
N4811     0.02330   0.04710   0.03030  -0.00200   0.00030  -0.00130
N4812     0.02450   0.05650   0.03410  -0.00140  -0.00040  -0.00230
C4813     0.02400   0.07500   0.03410  -0.00840  -0.00570  -0.01140
C4815     0.02660   0.09300   0.03870   0.00000  -0.00480  -0.00300
C4817     0.02540   0.13000   0.04900   0.00200   0.00310  -0.02800
C4819     0.02480   0.15200   0.05000   0.00000   0.00010  -0.01500
N4821     0.04710   0.02330   0.03030   0.00200  -0.00130  -0.00030
N4822     0.05650   0.02450   0.03410   0.00140  -0.00230   0.00040
C4823     0.07500   0.02400   0.03410   0.00840  -0.01140   0.00570
C4825     0.09300   0.02660   0.03870   0.00000  -0.00300   0.00480
C4827     0.13000   0.02540   0.04900  -0.00200  -0.02800  -0.00310
C4829     0.15200   0.02480   0.05000   0.00000  -0.01500  -0.00010
N4831     0.04710   0.02330   0.03030   0.00200   0.00130   0.00030
N4832     0.05650   0.02450   0.03410   0.00140   0.00230  -0.00040
C4833     0.07500   0.02400   0.03410   0.00840   0.01140  -0.00570
C4835     0.09300   0.02660   0.03870   0.00000   0.00300  -0.00480
C4837     0.13000   0.02540   0.04900  -0.00200   0.02800   0.00310
C4839     0.15200   0.02480   0.05000   0.00000   0.01500   0.00010
N4841     0.02330   0.04710   0.03030   0.00200  -0.00030  -0.00130
N4842     0.02450   0.05650   0.03410   0.00140   0.00040  -0.00230
C4843     0.02400   0.07500   0.03410   0.00840   0.00570  -0.01140
C4845     0.02660   0.09300   0.03870   0.00000   0.00480  -0.00300
C4847     0.02540   0.13000   0.04900  -0.00200  -0.00310  -0.02800
C4849     0.02480   0.15200   0.05000   0.00000  -0.00010  -0.01500
N4851     0.02330   0.04710   0.03030   0.00200   0.00030   0.00130
N4852     0.02450   0.05650   0.03410   0.00140  -0.00040   0.00230
C4853     0.02400   0.07500   0.03410   0.00840  -0.00570   0.01140
C4855     0.02660   0.09300   0.03870   0.00000  -0.00480   0.00300
C4857     0.02540   0.13000   0.04900  -0.00200   0.00310   0.02800
C4859     0.02480   0.15200   0.05000   0.00000   0.00010   0.01500
N4861     0.04710   0.02330   0.03030  -0.00200  -0.00130   0.00030
N4862     0.05650   0.02450   0.03410  -0.00140  -0.00230  -0.00040
C4863     0.07500   0.02400   0.03410  -0.00840  -0.01140  -0.00570
C4865     0.09300   0.02660   0.03870   0.00000  -0.00300  -0.00480
C4867     0.13000   0.02540   0.04900   0.00200  -0.02800   0.00310
C4869     0.15200   0.02480   0.05000   0.00000  -0.01500   0.00010
N4871     0.04710   0.02330   0.03030  -0.00200   0.00130  -0.00030
N4872     0.05650   0.02450   0.03410  -0.00140   0.00230   0.00040
C4873     0.07500   0.02400   0.03410  -0.00840   0.01140   0.00570
C4875     0.09300   0.02660   0.03870   0.00000   0.00300   0.00480
C4877     0.13000   0.02540   0.04900   0.00200   0.02800  -0.00310
C4879     0.15200   0.02480   0.05000   0.00000   0.01500  -0.00010
Co4881    0.02490   0.02490   0.02650  -0.00028  -0.00071   0.00071
Co4882    0.02490   0.02490   0.02650  -0.00028   0.00071  -0.00071
Co4883    0.02490   0.02490   0.02650   0.00028  -0.00071  -0.00071
Co4884    0.02490   0.02490   0.02650   0.00028   0.00071   0.00071
C4885     0.01940   0.07600   0.04700   0.00000   0.00000   0.01000
C4886     0.02310   0.06200   0.03900   0.00000   0.00000   0.00900
C4887     0.02250   0.08400   0.04600   0.00000   0.00000   0.03100
C4888     0.02300   0.08800   0.05200   0.00000   0.00000  -0.00900
C4889     0.01940   0.07600   0.04700   0.00000   0.00000  -0.01000
C4890     0.02310   0.06200   0.03900   0.00000   0.00000  -0.00900
C4891     0.02250   0.08400   0.04600   0.00000   0.00000  -0.03100
C4892     0.02300   0.08800   0.05200   0.00000   0.00000   0.00900
C4893     0.07600   0.01940   0.04700   0.00000  -0.01000   0.00000
C4894     0.06200   0.02310   0.03900   0.00000  -0.00900   0.00000
C4895     0.08400   0.02250   0.04600   0.00000  -0.03100   0.00000
C4896     0.08800   0.02300   0.05200   0.00000   0.00900   0.00000
C4897     0.07600   0.01940   0.04700   0.00000   0.01000   0.00000
C4898     0.06200   0.02310   0.03900   0.00000   0.00900   0.00000
C4899     0.08400   0.02250   0.04600   0.00000   0.03100   0.00000
C4900     0.08800   0.02300   0.05200   0.00000  -0.00900   0.00000
N4901     0.02330   0.04710   0.03030  -0.00200  -0.00030   0.00130
N4902     0.02450   0.05650   0.03410  -0.00140   0.00040   0.00230
C4903     0.02400   0.07500   0.03410  -0.00840   0.00570   0.01140
C4905     0.02660   0.09300   0.03870   0.00000   0.00480   0.00300
C4907     0.02540   0.13000   0.04900   0.00200  -0.00310   0.02800
C4909     0.02480   0.15200   0.05000   0.00000  -0.00010   0.01500
N4911     0.02330   0.04710   0.03030  -0.00200   0.00030  -0.00130
N4912     0.02450   0.05650   0.03410  -0.00140  -0.00040  -0.00230
C4913     0.02400   0.07500   0.03410  -0.00840  -0.00570  -0.01140
C4915     0.02660   0.09300   0.03870   0.00000  -0.00480  -0.00300
C4917     0.02540   0.13000   0.04900   0.00200   0.00310  -0.02800
C4919     0.02480   0.15200   0.05000   0.00000   0.00010  -0.01500
N4921     0.04710   0.02330   0.03030   0.00200  -0.00130  -0.00030
N4922     0.05650   0.02450   0.03410   0.00140  -0.00230   0.00040
C4923     0.07500   0.02400   0.03410   0.00840  -0.01140   0.00570
C4925     0.09300   0.02660   0.03870   0.00000  -0.00300   0.00480
C4927     0.13000   0.02540   0.04900  -0.00200  -0.02800  -0.00310
C4929     0.15200   0.02480   0.05000   0.00000  -0.01500  -0.00010
N4931     0.04710   0.02330   0.03030   0.00200   0.00130   0.00030
N4932     0.05650   0.02450   0.03410   0.00140   0.00230  -0.00040
C4933     0.07500   0.02400   0.03410   0.00840   0.01140  -0.00570
C4935     0.09300   0.02660   0.03870   0.00000   0.00300  -0.00480
C4937     0.13000   0.02540   0.04900  -0.00200   0.02800   0.00310
C4939     0.15200   0.02480   0.05000   0.00000   0.01500   0.00010
N4941     0.02330   0.04710   0.03030   0.00200  -0.00030  -0.00130
N4942     0.02450   0.05650   0.03410   0.00140   0.00040  -0.00230
C4943     0.02400   0.07500   0.03410   0.00840   0.00570  -0.01140
C4945     0.02660   0.09300   0.03870   0.00000   0.00480  -0.00300
C4947     0.02540   0.13000   0.04900  -0.00200  -0.00310  -0.02800
C4949     0.02480   0.15200   0.05000   0.00000  -0.00010  -0.01500
N4951     0.02330   0.04710   0.03030   0.00200   0.00030   0.00130
N4952     0.02450   0.05650   0.03410   0.00140  -0.00040   0.00230
C4953     0.02400   0.07500   0.03410   0.00840  -0.00570   0.01140
C4955     0.02660   0.09300   0.03870   0.00000  -0.00480   0.00300
C4957     0.02540   0.13000   0.04900  -0.00200   0.00310   0.02800
C4959     0.02480   0.15200   0.05000   0.00000   0.00010   0.01500
N4961     0.04710   0.02330   0.03030  -0.00200  -0.00130   0.00030
N4962     0.05650   0.02450   0.03410  -0.00140  -0.00230  -0.00040
C4963     0.07500   0.02400   0.03410  -0.00840  -0.01140  -0.00570
C4965     0.09300   0.02660   0.03870   0.00000  -0.00300  -0.00480
C4967     0.13000   0.02540   0.04900   0.00200  -0.02800   0.00310
C4969     0.15200   0.02480   0.05000   0.00000  -0.01500   0.00010
N4971     0.04710   0.02330   0.03030  -0.00200   0.00130  -0.00030
N4972     0.05650   0.02450   0.03410  -0.00140   0.00230   0.00040
C4973     0.07500   0.02400   0.03410  -0.00840   0.01140   0.00570
C4975     0.09300   0.02660   0.03870   0.00000   0.00300   0.00480
C4977     0.13000   0.02540   0.04900   0.00200   0.02800  -0.00310
C4979     0.15200   0.02480   0.05000   0.00000   0.01500  -0.00010
Co4981    0.02490   0.02490   0.02650  -0.00028  -0.00071   0.00071
Co4982    0.02490   0.02490   0.02650  -0.00028   0.00071  -0.00071
Co4983    0.02490   0.02490   0.02650   0.00028  -0.00071  -0.00071
Co4984    0.02490   0.02490   0.02650   0.00028   0.00071   0.00071
C4985     0.01940   0.07600   0.04700   0.00000   0.00000   0.01000
C4986     0.02310   0.06200   0.03900   0.00000   0.00000   0.00900
C4987     0.02250   0.08400   0.04600   0.00000   0.00000   0.03100
C4988     0.02300   0.08800   0.05200   0.00000   0.00000  -0.00900
C4989     0.01940   0.07600   0.04700   0.00000   0.00000  -0.01000
C4990     0.02310   0.06200   0.03900   0.00000   0.00000  -0.00900
C4991     0.02250   0.08400   0.04600   0.00000   0.00000  -0.03100
C4992     0.02300   0.08800   0.05200   0.00000   0.00000   0.00900
C4993     0.07600   0.01940   0.04700   0.00000  -0.01000   0.00000
C4994     0.06200   0.02310   0.03900   0.00000  -0.00900   0.00000
C4995     0.08400   0.02250   0.04600   0.00000  -0.03100   0.00000
C4996     0.08800   0.02300   0.05200   0.00000   0.00900   0.00000
C4997     0.07600   0.01940   0.04700   0.00000   0.01000   0.00000
C4998     0.06200   0.02310   0.03900   0.00000   0.00900   0.00000
C4999     0.08400   0.02250   0.04600   0.00000   0.03100   0.00000
C5000     0.08800   0.02300   0.05200   0.00000  -0.00900   0.00000
N5001     0.02330   0.04710   0.03030  -0.00200  -0.00030   0.00130
N5002     0.02450   0.05650   0.03410  -0.00140   0.00040   0.00230
C5003     0.02400   0.07500   0.03410  -0.00840   0.00570   0.01140
C5005     0.02660   0.09300   0.03870   0.00000   0.00480   0.00300
C5007     0.02540   0.13000   0.04900   0.00200  -0.00310   0.02800
C5009     0.02480   0.15200   0.05000   0.00000  -0.00010   0.01500
N5011     0.02330   0.04710   0.03030  -0.00200   0.00030  -0.00130
N5012     0.02450   0.05650   0.03410  -0.00140  -0.00040  -0.00230
C5013     0.02400   0.07500   0.03410  -0.00840  -0.00570  -0.01140
C5015     0.02660   0.09300   0.03870   0.00000  -0.00480  -0.00300
C5017     0.02540   0.13000   0.04900   0.00200   0.00310  -0.02800
C5019     0.02480   0.15200   0.05000   0.00000   0.00010  -0.01500
N5021     0.04710   0.02330   0.03030   0.00200  -0.00130  -0.00030
N5022     0.05650   0.02450   0.03410   0.00140  -0.00230   0.00040
C5023     0.07500   0.02400   0.03410   0.00840  -0.01140   0.00570
C5025     0.09300   0.02660   0.03870   0.00000  -0.00300   0.00480
C5027     0.13000   0.02540   0.04900  -0.00200  -0.02800  -0.00310
C5029     0.15200   0.02480   0.05000   0.00000  -0.01500  -0.00010
N5031     0.04710   0.02330   0.03030   0.00200   0.00130   0.00030
N5032     0.05650   0.02450   0.03410   0.00140   0.00230  -0.00040
C5033     0.07500   0.02400   0.03410   0.00840   0.01140  -0.00570
C5035     0.09300   0.02660   0.03870   0.00000   0.00300  -0.00480
C5037     0.13000   0.02540   0.04900  -0.00200   0.02800   0.00310
C5039     0.15200   0.02480   0.05000   0.00000   0.01500   0.00010
N5041     0.02330   0.04710   0.03030   0.00200  -0.00030  -0.00130
N5042     0.02450   0.05650   0.03410   0.00140   0.00040  -0.00230
C5043     0.02400   0.07500   0.03410   0.00840   0.00570  -0.01140
C5045     0.02660   0.09300   0.03870   0.00000   0.00480  -0.00300
C5047     0.02540   0.13000   0.04900  -0.00200  -0.00310  -0.02800
C5049     0.02480   0.15200   0.05000   0.00000  -0.00010  -0.01500
N5051     0.02330   0.04710   0.03030   0.00200   0.00030   0.00130
N5052     0.02450   0.05650   0.03410   0.00140  -0.00040   0.00230
C5053     0.02400   0.07500   0.03410   0.00840  -0.00570   0.01140
C5055     0.02660   0.09300   0.03870   0.00000  -0.00480   0.00300
C5057     0.02540   0.13000   0.04900  -0.00200   0.00310   0.02800
C5059     0.02480   0.15200   0.05000   0.00000   0.00010   0.01500
N5061     0.04710   0.02330   0.03030  -0.00200  -0.00130   0.00030
N5062     0.05650   0.02450   0.03410  -0.00140  -0.00230  -0.00040
C5063     0.07500   0.02400   0.03410  -0.00840  -0.01140  -0.00570
C5065     0.09300   0.02660   0.03870   0.00000  -0.00300  -0.00480
C5067     0.13000   0.02540   0.04900   0.00200  -0.02800   0.00310
C5069     0.15200   0.02480   0.05000   0.00000  -0.01500   0.00010
N5071     0.04710   0.02330   0.03030  -0.00200   0.00130  -0.00030
N5072     0.05650   0.02450   0.03410  -0.00140   0.00230   0.00040
C5073     0.07500   0.02400   0.03410  -0.00840   0.01140   0.00570
C5075     0.09300   0.02660   0.03870   0.00000   0.00300   0.00480
C5077     0.13000   0.02540   0.04900   0.00200   0.02800  -0.00310
C5079     0.15200   0.02480   0.05000   0.00000   0.01500  -0.00010
Co5081    0.02490   0.02490   0.02650  -0.00028  -0.00071   0.00071
Co5082    0.02490   0.02490   0.02650  -0.00028   0.00071  -0.00071
Co5083    0.02490   0.02490   0.02650   0.00028  -0.00071  -0.00071
Co5084    0.02490   0.02490   0.02650   0.00028   0.00071   0.00071
C5085     0.01940   0.07600   0.04700   0.00000   0.00000   0.01000
C5086     0.02310   0.06200   0.03900   0.00000   0.00000   0.00900
C5087     0.02250   0.08400   0.04600   0.00000   0.00000   0.03100
C5088     0.02300   0.08800   0.05200   0.00000   0.00000  -0.00900
C5089     0.01940   0.07600   0.04700   0.00000   0.00000  -0.01000
C5090     0.02310   0.06200   0.03900   0.00000   0.00000  -0.00900
C5091     0.02250   0.08400   0.04600   0.00000   0.00000  -0.03100
C5092     0.02300   0.08800   0.05200   0.00000   0.00000   0.00900
C5093     0.07600   0.01940   0.04700   0.00000  -0.01000   0.00000
C5094     0.06200   0.02310   0.03900   0.00000  -0.00900   0.00000
C5095     0.08400   0.02250   0.04600   0.00000  -0.03100   0.00000
C5096     0.08800   0.02300   0.05200   0.00000   0.00900   0.00000
C5097     0.07600   0.01940   0.04700   0.00000   0.01000   0.00000
C5098     0.06200   0.02310   0.03900   0.00000   0.00900   0.00000
C5099     0.08400   0.02250   0.04600   0.00000   0.03100   0.00000
C5100     0.08800   0.02300   0.05200   0.00000  -0.00900   0.00000
N5101     0.02330   0.04710   0.03030  -0.00200  -0.00030   0.00130
N5102     0.02450   0.05650   0.03410  -0.00140   0.00040   0.00230
C5103     0.02400   0.07500   0.03410  -0.00840   0.00570   0.01140
C5105     0.02660   0.09300   0.03870   0.00000   0.00480   0.00300
C5107     0.02540   0.13000   0.04900   0.00200  -0.00310   0.02800
C5109     0.02480   0.15200   0.05000   0.00000  -0.00010   0.01500
N5111     0.02330   0.04710   0.03030  -0.00200   0.00030  -0.00130
N5112     0.02450   0.05650   0.03410  -0.00140  -0.00040  -0.00230
C5113     0.02400   0.07500   0.03410  -0.00840  -0.00570  -0.01140
C5115     0.02660   0.09300   0.03870   0.00000  -0.00480  -0.00300
C5117     0.02540   0.13000   0.04900   0.00200   0.00310  -0.02800
C5119     0.02480   0.15200   0.05000   0.00000   0.00010  -0.01500
N5121     0.04710   0.02330   0.03030   0.00200  -0.00130  -0.00030
N5122     0.05650   0.02450   0.03410   0.00140  -0.00230   0.00040
C5123     0.07500   0.02400   0.03410   0.00840  -0.01140   0.00570
C5125     0.09300   0.02660   0.03870   0.00000  -0.00300   0.00480
C5127     0.13000   0.02540   0.04900  -0.00200  -0.02800  -0.00310
C5129     0.15200   0.02480   0.05000   0.00000  -0.01500  -0.00010
N5131     0.04710   0.02330   0.03030   0.00200   0.00130   0.00030
N5132     0.05650   0.02450   0.03410   0.00140   0.00230  -0.00040
C5133     0.07500   0.02400   0.03410   0.00840   0.01140  -0.00570
C5135     0.09300   0.02660   0.03870   0.00000   0.00300  -0.00480
C5137     0.13000   0.02540   0.04900  -0.00200   0.02800   0.00310
C5139     0.15200   0.02480   0.05000   0.00000   0.01500   0.00010
N5141     0.02330   0.04710   0.03030   0.00200  -0.00030  -0.00130
N5142     0.02450   0.05650   0.03410   0.00140   0.00040  -0.00230
C5143     0.02400   0.07500   0.03410   0.00840   0.00570  -0.01140
C5145     0.02660   0.09300   0.03870   0.00000   0.00480  -0.00300
C5147     0.02540   0.13000   0.04900  -0.00200  -0.00310  -0.02800
C5149     0.02480   0.15200   0.05000   0.00000  -0.00010  -0.01500
N5151     0.02330   0.04710   0.03030   0.00200   0.00030   0.00130
N5152     0.02450   0.05650   0.03410   0.00140  -0.00040   0.00230
C5153     0.02400   0.07500   0.03410   0.00840  -0.00570   0.01140
C5155     0.02660   0.09300   0.03870   0.00000  -0.00480   0.00300
C5157     0.02540   0.13000   0.04900  -0.00200   0.00310   0.02800
C5159     0.02480   0.15200   0.05000   0.00000   0.00010   0.01500
N5161     0.04710   0.02330   0.03030  -0.00200  -0.00130   0.00030
N5162     0.05650   0.02450   0.03410  -0.00140  -0.00230  -0.00040
C5163     0.07500   0.02400   0.03410  -0.00840  -0.01140  -0.00570
C5165     0.09300   0.02660   0.03870   0.00000  -0.00300  -0.00480
C5167     0.13000   0.02540   0.04900   0.00200  -0.02800   0.00310
C5169     0.15200   0.02480   0.05000   0.00000  -0.01500   0.00010
N5171     0.04710   0.02330   0.03030  -0.00200   0.00130  -0.00030
N5172     0.05650   0.02450   0.03410  -0.00140   0.00230   0.00040
C5173     0.07500   0.02400   0.03410  -0.00840   0.01140   0.00570
C5175     0.09300   0.02660   0.03870   0.00000   0.00300   0.00480
C5177     0.13000   0.02540   0.04900   0.00200   0.02800  -0.00310
C5179     0.15200   0.02480   0.05000   0.00000   0.01500  -0.00010
Co5181    0.02490   0.02490   0.02650  -0.00028  -0.00071   0.00071
Co5182    0.02490   0.02490   0.02650  -0.00028   0.00071  -0.00071
Co5183    0.02490   0.02490   0.02650   0.00028  -0.00071  -0.00071
Co5184    0.02490   0.02490   0.02650   0.00028   0.00071   0.00071
C5185     0.01940   0.07600   0.04700   0.00000   0.00000   0.01000
C5186     0.02310   0.06200   0.03900   0.00000   0.00000   0.00900
C5187     0.02250   0.08400   0.04600   0.00000   0.00000   0.03100
C5188     0.02300   0.08800   0.05200   0.00000   0.00000  -0.00900
C5189     0.01940   0.07600   0.04700   0.00000   0.00000  -0.01000
C5190     0.02310   0.06200   0.03900   0.00000   0.00000  -0.00900
C5191     0.02250   0.08400   0.04600   0.00000   0.00000  -0.03100
C5192     0.02300   0.08800   0.05200   0.00000   0.00000   0.00900
C5193     0.07600   0.01940   0.04700   0.00000  -0.01000   0.00000
C5194     0.06200   0.02310   0.03900   0.00000  -0.00900   0.00000
C5195     0.08400   0.02250   0.04600   0.00000  -0.03100   0.00000
C5196     0.08800   0.02300   0.05200   0.00000   0.00900   0.00000
C5197     0.07600   0.01940   0.04700   0.00000   0.01000   0.00000
C5198     0.06200   0.02310   0.03900   0.00000   0.00900   0.00000
C5199     0.08400   0.02250   0.04600   0.00000   0.03100   0.00000
C5200     0.08800   0.02300   0.05200   0.00000  -0.00900   0.00000
N5201     0.02330   0.04710   0.03030  -0.00200  -0.00030   0.00130
N5202     0.02450   0.05650   0.03410  -0.00140   0.00040   0.00230
C5203     0.02400   0.07500   0.03410  -0.00840   0.00570   0.01140
C5205     0.02660   0.09300   0.03870   0.00000   0.00480   0.00300
C5207     0.02540   0.13000   0.04900   0.00200  -0.00310   0.02800
C5209     0.02480   0.15200   0.05000   0.00000  -0.00010   0.01500
N5211     0.02330   0.04710   0.03030  -0.00200   0.00030  -0.00130
N5212     0.02450   0.05650   0.03410  -0.00140  -0.00040  -0.00230
C5213     0.02400   0.07500   0.03410  -0.00840  -0.00570  -0.01140
C5215     0.02660   0.09300   0.03870   0.00000  -0.00480  -0.00300
C5217     0.02540   0.13000   0.04900   0.00200   0.00310  -0.02800
C5219     0.02480   0.15200   0.05000   0.00000   0.00010  -0.01500
N5221     0.04710   0.02330   0.03030   0.00200  -0.00130  -0.00030
N5222     0.05650   0.02450   0.03410   0.00140  -0.00230   0.00040
C5223     0.07500   0.02400   0.03410   0.00840  -0.01140   0.00570
C5225     0.09300   0.02660   0.03870   0.00000  -0.00300   0.00480
C5227     0.13000   0.02540   0.04900  -0.00200  -0.02800  -0.00310
C5229     0.15200   0.02480   0.05000   0.00000  -0.01500  -0.00010
N5231     0.04710   0.02330   0.03030   0.00200   0.00130   0.00030
N5232     0.05650   0.02450   0.03410   0.00140   0.00230  -0.00040
C5233     0.07500   0.02400   0.03410   0.00840   0.01140  -0.00570
C5235     0.09300   0.02660   0.03870   0.00000   0.00300  -0.00480
C5237     0.13000   0.02540   0.04900  -0.00200   0.02800   0.00310
C5239     0.15200   0.02480   0.05000   0.00000   0.01500   0.00010
N5241     0.02330   0.04710   0.03030   0.00200  -0.00030  -0.00130
N5242     0.02450   0.05650   0.03410   0.00140   0.00040  -0.00230
C5243     0.02400   0.07500   0.03410   0.00840   0.00570  -0.01140
C5245     0.02660   0.09300   0.03870   0.00000   0.00480  -0.00300
C5247     0.02540   0.13000   0.04900  -0.00200  -0.00310  -0.02800
C5249     0.02480   0.15200   0.05000   0.00000  -0.00010  -0.01500
N5251     0.02330   0.04710   0.03030   0.00200   0.00030   0.00130
N5252     0.02450   0.05650   0.03410   0.00140  -0.00040   0.00230
C5253     0.02400   0.07500   0.03410   0.00840  -0.00570   0.01140
C5255     0.02660   0.09300   0.03870   0.00000  -0.00480   0.00300
C5257     0.02540   0.13000   0.04900  -0.00200   0.00310   0.02800
C5259     0.02480   0.15200   0.05000   0.00000   0.00010   0.01500
N5261     0.04710   0.02330   0.03030  -0.00200  -0.00130   0.00030
N5262     0.05650   0.02450   0.03410  -0.00140  -0.00230  -0.00040
C5263     0.07500   0.02400   0.03410  -0.00840  -0.01140  -0.00570
C5265     0.09300   0.02660   0.03870   0.00000  -0.00300  -0.00480
C5267     0.13000   0.02540   0.04900   0.00200  -0.02800   0.00310
C5269     0.15200   0.02480   0.05000   0.00000  -0.01500   0.00010
N5271     0.04710   0.02330   0.03030  -0.00200   0.00130  -0.00030
N5272     0.05650   0.02450   0.03410  -0.00140   0.00230   0.00040
C5273     0.07500   0.02400   0.03410  -0.00840   0.01140   0.00570
C5275     0.09300   0.02660   0.03870   0.00000   0.00300   0.00480
C5277     0.13000   0.02540   0.04900   0.00200   0.02800  -0.00310
C5279     0.15200   0.02480   0.05000   0.00000   0.01500  -0.00010
Co5281    0.02490   0.02490   0.02650  -0.00028  -0.00071   0.00071
Co5282    0.02490   0.02490   0.02650  -0.00028   0.00071  -0.00071
Co5283    0.02490   0.02490   0.02650   0.00028  -0.00071  -0.00071
Co5284    0.02490   0.02490   0.02650   0.00028   0.00071   0.00071
C5285     0.01940   0.07600   0.04700   0.00000   0.00000   0.01000
C5286     0.02310   0.06200   0.03900   0.00000   0.00000   0.00900
C5287     0.02250   0.08400   0.04600   0.00000   0.00000   0.03100
C5288     0.02300   0.08800   0.05200   0.00000   0.00000  -0.00900
C5289     0.01940   0.07600   0.04700   0.00000   0.00000  -0.01000
C5290     0.02310   0.06200   0.03900   0.00000   0.00000  -0.00900
C5291     0.02250   0.08400   0.04600   0.00000   0.00000  -0.03100
C5292     0.02300   0.08800   0.05200   0.00000   0.00000   0.00900
C5293     0.07600   0.01940   0.04700   0.00000  -0.01000   0.00000
C5294     0.06200   0.02310   0.03900   0.00000  -0.00900   0.00000
C5295     0.08400   0.02250   0.04600   0.00000  -0.03100   0.00000
C5296     0.08800   0.02300   0.05200   0.00000   0.00900   0.00000
C5297     0.07600   0.01940   0.04700   0.00000   0.01000   0.00000
C5298     0.06200   0.02310   0.03900   0.00000   0.00900   0.00000
C5299     0.08400   0.02250   0.04600   0.00000   0.03100   0.00000
C5300     0.08800   0.02300   0.05200   0.00000  -0.00900   0.00000
N5301     0.02330   0.04710   0.03030  -0.00200  -0.00030   0.00130
N5302     0.02450   0.05650   0.03410  -0.00140   0.00040   0.00230
C5303     0.02400   0.07500   0.03410  -0.00840   0.00570   0.01140
C5305     0.02660   0.09300   0.03870   0.00000   0.00480   0.00300
C5307     0.02540   0.13000   0.04900   0.00200  -0.00310   0.02800
C5309     0.02480   0.15200   0.05000   0.00000  -0.00010   0.01500
N5311     0.02330   0.04710   0.03030  -0.00200   0.00030  -0.00130
N5312     0.02450   0.05650   0.03410  -0.00140  -0.00040  -0.00230
C5313     0.02400   0.07500   0.03410  -0.00840  -0.00570  -0.01140
C5315     0.02660   0.09300   0.03870   0.00000  -0.00480  -0.00300
C5317     0.02540   0.13000   0.04900   0.00200   0.00310  -0.02800
C5319     0.02480   0.15200   0.05000   0.00000   0.00010  -0.01500
N5321     0.04710   0.02330   0.03030   0.00200  -0.00130  -0.00030
N5322     0.05650   0.02450   0.03410   0.00140  -0.00230   0.00040
C5323     0.07500   0.02400   0.03410   0.00840  -0.01140   0.00570
C5325     0.09300   0.02660   0.03870   0.00000  -0.00300   0.00480
C5327     0.13000   0.02540   0.04900  -0.00200  -0.02800  -0.00310
C5329     0.15200   0.02480   0.05000   0.00000  -0.01500  -0.00010
N5331     0.04710   0.02330   0.03030   0.00200   0.00130   0.00030
N5332     0.05650   0.02450   0.03410   0.00140   0.00230  -0.00040
C5333     0.07500   0.02400   0.03410   0.00840   0.01140  -0.00570
C5335     0.09300   0.02660   0.03870   0.00000   0.00300  -0.00480
C5337     0.13000   0.02540   0.04900  -0.00200   0.02800   0.00310
C5339     0.15200   0.02480   0.05000   0.00000   0.01500   0.00010
N5341     0.02330   0.04710   0.03030   0.00200  -0.00030  -0.00130
N5342     0.02450   0.05650   0.03410   0.00140   0.00040  -0.00230
C5343     0.02400   0.07500   0.03410   0.00840   0.00570  -0.01140
C5345     0.02660   0.09300   0.03870   0.00000   0.00480  -0.00300
C5347     0.02540   0.13000   0.04900  -0.00200  -0.00310  -0.02800
C5349     0.02480   0.15200   0.05000   0.00000  -0.00010  -0.01500
N5351     0.02330   0.04710   0.03030   0.00200   0.00030   0.00130
N5352     0.02450   0.05650   0.03410   0.00140  -0.00040   0.00230
C5353     0.02400   0.07500   0.03410   0.00840  -0.00570   0.01140
C5355     0.02660   0.09300   0.03870   0.00000  -0.00480   0.00300
C5357     0.02540   0.13000   0.04900  -0.00200   0.00310   0.02800
C5359     0.02480   0.15200   0.05000   0.00000   0.00010   0.01500
N5361     0.04710   0.02330   0.03030  -0.00200  -0.00130   0.00030
N5362     0.05650   0.02450   0.03410  -0.00140  -0.00230  -0.00040
C5363     0.07500   0.02400   0.03410  -0.00840  -0.01140  -0.00570
C5365     0.09300   0.02660   0.03870   0.00000  -0.00300  -0.00480
C5367     0.13000   0.02540   0.04900   0.00200  -0.02800   0.00310
C5369     0.15200   0.02480   0.05000   0.00000  -0.01500   0.00010
N5371     0.04710   0.02330   0.03030  -0.00200   0.00130  -0.00030
N5372     0.05650   0.02450   0.03410  -0.00140   0.00230   0.00040
C5373     0.07500   0.02400   0.03410  -0.00840   0.01140   0.00570
C5375     0.09300   0.02660   0.03870   0.00000   0.00300   0.00480
C5377     0.13000   0.02540   0.04900   0.00200   0.02800  -0.00310
C5379     0.15200   0.02480   0.05000   0.00000   0.01500  -0.00010
Co5381    0.02490   0.02490   0.02650  -0.00028  -0.00071   0.00071
Co5382    0.02490   0.02490   0.02650  -0.00028   0.00071  -0.00071
Co5383    0.02490   0.02490   0.02650   0.00028  -0.00071  -0.00071
Co5384    0.02490   0.02490   0.02650   0.00028   0.00071   0.00071
C5385     0.01940   0.07600   0.04700   0.00000   0.00000   0.01000
C5386     0.02310   0.06200   0.03900   0.00000   0.00000   0.00900
C5387     0.02250   0.08400   0.04600   0.00000   0.00000   0.03100
C5388     0.02300   0.08800   0.05200   0.00000   0.00000  -0.00900
C5389     0.01940   0.07600   0.04700   0.00000   0.00000  -0.01000
C5390     0.02310   0.06200   0.03900   0.00000   0.00000  -0.00900
C5391     0.02250   0.08400   0.04600   0.00000   0.00000  -0.03100
C5392     0.02300   0.08800   0.05200   0.00000   0.00000   0.00900
C5393     0.07600   0.01940   0.04700   0.00000  -0.01000   0.00000
C5394     0.06200   0.02310   0.03900   0.00000  -0.00900   0.00000
C5395     0.08400   0.02250   0.04600   0.00000  -0.03100   0.00000
C5396     0.08800   0.02300   0.05200   0.00000   0.00900   0.00000
C5397     0.07600   0.01940   0.04700   0.00000   0.01000   0.00000
C5398     0.06200   0.02310   0.03900   0.00000   0.00900   0.00000
C5399     0.08400   0.02250   0.04600   0.00000   0.03100   0.00000
C5400     0.08800   0.02300   0.05200   0.00000  -0.00900   0.00000
N5401     0.02330   0.04710   0.03030  -0.00200  -0.00030   0.00130
N5402     0.02450   0.05650   0.03410  -0.00140   0.00040   0.00230
C5403     0.02400   0.07500   0.03410  -0.00840   0.00570   0.01140
C5405     0.02660   0.09300   0.03870   0.00000   0.00480   0.00300
C5407     0.02540   0.13000   0.04900   0.00200  -0.00310   0.02800
C5409     0.02480   0.15200   0.05000   0.00000  -0.00010   0.01500
N5411     0.02330   0.04710   0.03030  -0.00200   0.00030  -0.00130
N5412     0.02450   0.05650   0.03410  -0.00140  -0.00040  -0.00230
C5413     0.02400   0.07500   0.03410  -0.00840  -0.00570  -0.01140
C5415     0.02660   0.09300   0.03870   0.00000  -0.00480  -0.00300
C5417     0.02540   0.13000   0.04900   0.00200   0.00310  -0.02800
C5419     0.02480   0.15200   0.05000   0.00000   0.00010  -0.01500
N5421     0.04710   0.02330   0.03030   0.00200  -0.00130  -0.00030
N5422     0.05650   0.02450   0.03410   0.00140  -0.00230   0.00040
C5423     0.07500   0.02400   0.03410   0.00840  -0.01140   0.00570
C5425     0.09300   0.02660   0.03870   0.00000  -0.00300   0.00480
C5427     0.13000   0.02540   0.04900  -0.00200  -0.02800  -0.00310
C5429     0.15200   0.02480   0.05000   0.00000  -0.01500  -0.00010
N5431     0.04710   0.02330   0.03030   0.00200   0.00130   0.00030
N5432     0.05650   0.02450   0.03410   0.00140   0.00230  -0.00040
C5433     0.07500   0.02400   0.03410   0.00840   0.01140  -0.00570
C5435     0.09300   0.02660   0.03870   0.00000   0.00300  -0.00480
C5437     0.13000   0.02540   0.04900  -0.00200   0.02800   0.00310
C5439     0.15200   0.02480   0.05000   0.00000   0.01500   0.00010
N5441     0.02330   0.04710   0.03030   0.00200  -0.00030  -0.00130
N5442     0.02450   0.05650   0.03410   0.00140   0.00040  -0.00230
C5443     0.02400   0.07500   0.03410   0.00840   0.00570  -0.01140
C5445     0.02660   0.09300   0.03870   0.00000   0.00480  -0.00300
C5447     0.02540   0.13000   0.04900  -0.00200  -0.00310  -0.02800
C5449     0.02480   0.15200   0.05000   0.00000  -0.00010  -0.01500
N5451     0.02330   0.04710   0.03030   0.00200   0.00030   0.00130
N5452     0.02450   0.05650   0.03410   0.00140  -0.00040   0.00230
C5453     0.02400   0.07500   0.03410   0.00840  -0.00570   0.01140
C5455     0.02660   0.09300   0.03870   0.00000  -0.00480   0.00300
C5457     0.02540   0.13000   0.04900  -0.00200   0.00310   0.02800
C5459     0.02480   0.15200   0.05000   0.00000   0.00010   0.01500
N5461     0.04710   0.02330   0.03030  -0.00200  -0.00130   0.00030
N5462     0.05650   0.02450   0.03410  -0.00140  -0.00230  -0.00040
C5463     0.07500   0.02400   0.03410  -0.00840  -0.01140  -0.00570
C5465     0.09300   0.02660   0.03870   0.00000  -0.00300  -0.00480
C5467     0.13000   0.02540   0.04900   0.00200  -0.02800   0.00310
C5469     0.15200   0.02480   0.05000   0.00000  -0.01500   0.00010
N5471     0.04710   0.02330   0.03030  -0.00200   0.00130  -0.00030
N5472     0.05650   0.02450   0.03410  -0.00140   0.00230   0.00040
C5473     0.07500   0.02400   0.03410  -0.00840   0.01140   0.00570
C5475     0.09300   0.02660   0.03870   0.00000   0.00300   0.00480
C5477     0.13000   0.02540   0.04900   0.00200   0.02800  -0.00310
C5479     0.15200   0.02480   0.05000   0.00000   0.01500  -0.00010
Co5481    0.02490   0.02490   0.02650  -0.00028  -0.00071   0.00071
Co5482    0.02490   0.02490   0.02650  -0.00028   0.00071  -0.00071
Co5483    0.02490   0.02490   0.02650   0.00028  -0.00071  -0.00071
Co5484    0.02490   0.02490   0.02650   0.00028   0.00071   0.00071
C5485     0.01940   0.07600   0.04700   0.00000   0.00000   0.01000
C5486     0.02310   0.06200   0.03900   0.00000   0.00000   0.00900
C5487     0.02250   0.08400   0.04600   0.00000   0.00000   0.03100
C5488     0.02300   0.08800   0.05200   0.00000   0.00000  -0.00900
C5489     0.01940   0.07600   0.04700   0.00000   0.00000  -0.01000
C5490     0.02310   0.06200   0.03900   0.00000   0.00000  -0.00900
C5491     0.02250   0.08400   0.04600   0.00000   0.00000  -0.03100
C5492     0.02300   0.08800   0.05200   0.00000   0.00000   0.00900
C5493     0.07600   0.01940   0.04700   0.00000  -0.01000   0.00000
C5494     0.06200   0.02310   0.03900   0.00000  -0.00900   0.00000
C5495     0.08400   0.02250   0.04600   0.00000  -0.03100   0.00000
C5496     0.08800   0.02300   0.05200   0.00000   0.00900   0.00000
C5497     0.07600   0.01940   0.04700   0.00000   0.01000   0.00000
C5498     0.06200   0.02310   0.03900   0.00000   0.00900   0.00000
C5499     0.08400   0.02250   0.04600   0.00000   0.03100   0.00000
C5500     0.08800   0.02300   0.05200   0.00000  -0.00900   0.00000
N5501     0.02330   0.04710   0.03030  -0.00200  -0.00030   0.00130
N5502     0.02450   0.05650   0.03410  -0.00140   0.00040   0.00230
C5503     0.02400   0.07500   0.03410  -0.00840   0.00570   0.01140
C5505     0.02660   0.09300   0.03870   0.00000   0.00480   0.00300
C5507     0.02540   0.13000   0.04900   0.00200  -0.00310   0.02800
C5509     0.02480   0.15200   0.05000   0.00000  -0.00010   0.01500
N5511     0.02330   0.04710   0.03030  -0.00200   0.00030  -0.00130
N5512     0.02450   0.05650   0.03410  -0.00140  -0.00040  -0.00230
C5513     0.02400   0.07500   0.03410  -0.00840  -0.00570  -0.01140
C5515     0.02660   0.09300   0.03870   0.00000  -0.00480  -0.00300
C5517     0.02540   0.13000   0.04900   0.00200   0.00310  -0.02800
C5519     0.02480   0.15200   0.05000   0.00000   0.00010  -0.01500
N5521     0.04710   0.02330   0.03030   0.00200  -0.00130  -0.00030
N5522     0.05650   0.02450   0.03410   0.00140  -0.00230   0.00040
C5523     0.07500   0.02400   0.03410   0.00840  -0.01140   0.00570
C5525     0.09300   0.02660   0.03870   0.00000  -0.00300   0.00480
C5527     0.13000   0.02540   0.04900  -0.00200  -0.02800  -0.00310
C5529     0.15200   0.02480   0.05000   0.00000  -0.01500  -0.00010
N5531     0.04710   0.02330   0.03030   0.00200   0.00130   0.00030
N5532     0.05650   0.02450   0.03410   0.00140   0.00230  -0.00040
C5533     0.07500   0.02400   0.03410   0.00840   0.01140  -0.00570
C5535     0.09300   0.02660   0.03870   0.00000   0.00300  -0.00480
C5537     0.13000   0.02540   0.04900  -0.00200   0.02800   0.00310
C5539     0.15200   0.02480   0.05000   0.00000   0.01500   0.00010
N5541     0.02330   0.04710   0.03030   0.00200  -0.00030  -0.00130
N5542     0.02450   0.05650   0.03410   0.00140   0.00040  -0.00230
C5543     0.02400   0.07500   0.03410   0.00840   0.00570  -0.01140
C5545     0.02660   0.09300   0.03870   0.00000   0.00480  -0.00300
C5547     0.02540   0.13000   0.04900  -0.00200  -0.00310  -0.02800
C5549     0.02480   0.15200   0.05000   0.00000  -0.00010  -0.01500
N5551     0.02330   0.04710   0.03030   0.00200   0.00030   0.00130
N5552     0.02450   0.05650   0.03410   0.00140  -0.00040   0.00230
C5553     0.02400   0.07500   0.03410   0.00840  -0.00570   0.01140
C5555     0.02660   0.09300   0.03870   0.00000  -0.00480   0.00300
C5557     0.02540   0.13000   0.04900  -0.00200   0.00310   0.02800
C5559     0.02480   0.15200   0.05000   0.00000   0.00010   0.01500
N5561     0.04710   0.02330   0.03030  -0.00200  -0.00130   0.00030
N5562     0.05650   0.02450   0.03410  -0.00140  -0.00230  -0.00040
C5563     0.07500   0.02400   0.03410  -0.00840  -0.01140  -0.00570
C5565     0.09300   0.02660   0.03870   0.00000  -0.00300  -0.00480
C5567     0.13000   0.02540   0.04900   0.00200  -0.02800   0.00310
C5569     0.15200   0.02480   0.05000   0.00000  -0.01500   0.00010
N5571     0.04710   0.02330   0.03030  -0.00200   0.00130  -0.00030
N5572     0.05650   0.02450   0.03410  -0.00140   0.00230   0.00040
C5573     0.07500   0.02400   0.03410  -0.00840   0.01140   0.00570
C5575     0.09300   0.02660   0.03870   0.00000   0.00300   0.00480
C5577     0.13000   0.02540   0.04900   0.00200   0.02800  -0.00310
C5579     0.15200   0.02480   0.05000   0.00000   0.01500  -0.00010
Co5581    0.02490   0.02490   0.02650  -0.00028  -0.00071   0.00071
Co5582    0.02490   0.02490   0.02650  -0.00028   0.00071  -0.00071
Co5583    0.02490   0.02490   0.02650   0.00028  -0.00071  -0.00071
Co5584    0.02490   0.02490   0.02650   0.00028   0.00071   0.00071
C5585     0.01940   0.07600   0.04700   0.00000   0.00000   0.01000
C5586     0.02310   0.06200   0.03900   0.00000   0.00000   0.00900
C5587     0.02250   0.08400   0.04600   0.00000   0.00000   0.03100
C5588     0.02300   0.08800   0.05200   0.00000   0.00000  -0.00900
C5589     0.01940   0.07600   0.04700   0.00000   0.00000  -0.01000
C5590     0.02310   0.06200   0.03900   0.00000   0.00000  -0.00900
C5591     0.02250   0.08400   0.04600   0.00000   0.00000  -0.03100
C5592     0.02300   0.08800   0.05200   0.00000   0.00000   0.00900
C5593     0.07600   0.01940   0.04700   0.00000  -0.01000   0.00000
C5594     0.06200   0.02310   0.03900   0.00000  -0.00900   0.00000
C5595     0.08400   0.02250   0.04600   0.00000  -0.03100   0.00000
C5596     0.08800   0.02300   0.05200   0.00000   0.00900   0.00000
C5597     0.07600   0.01940   0.04700   0.00000   0.01000   0.00000
C5598     0.06200   0.02310   0.03900   0.00000   0.00900   0.00000
C5599     0.08400   0.02250   0.04600   0.00000   0.03100   0.00000
C5600     0.08800   0.02300   0.05200   0.00000  -0.00900   0.00000
N5601     0.02330   0.04710   0.03030  -0.00200  -0.00030   0.00130
N5602     0.02450   0.05650   0.03410  -0.00140   0.00040   0.00230
C5603     0.02400   0.07500   0.03410  -0.00840   0.00570   0.01140
C5605     0.02660   0.09300   0.03870   0.00000   0.00480   0.00300
C5607     0.02540   0.13000   0.04900   0.00200  -0.00310   0.02800
C5609     0.02480   0.15200   0.05000   0.00000  -0.00010   0.01500
N5611     0.02330   0.04710   0.03030  -0.00200   0.00030  -0.00130
N5612     0.02450   0.05650   0.03410  -0.00140  -0.00040  -0.00230
C5613     0.02400   0.07500   0.03410  -0.00840  -0.00570  -0.01140
C5615     0.02660   0.09300   0.03870   0.00000  -0.00480  -0.00300
C5617     0.02540   0.13000   0.04900   0.00200   0.00310  -0.02800
C5619     0.02480   0.15200   0.05000   0.00000   0.00010  -0.01500
N5621     0.04710   0.02330   0.03030   0.00200  -0.00130  -0.00030
N5622     0.05650   0.02450   0.03410   0.00140  -0.00230   0.00040
C5623     0.07500   0.02400   0.03410   0.00840  -0.01140   0.00570
C5625     0.09300   0.02660   0.03870   0.00000  -0.00300   0.00480
C5627     0.13000   0.02540   0.04900  -0.00200  -0.02800  -0.00310
C5629     0.15200   0.02480   0.05000   0.00000  -0.01500  -0.00010
N5631     0.04710   0.02330   0.03030   0.00200   0.00130   0.00030
N5632     0.05650   0.02450   0.03410   0.00140   0.00230  -0.00040
C5633     0.07500   0.02400   0.03410   0.00840   0.01140  -0.00570
C5635     0.09300   0.02660   0.03870   0.00000   0.00300  -0.00480
C5637     0.13000   0.02540   0.04900  -0.00200   0.02800   0.00310
C5639     0.15200   0.02480   0.05000   0.00000   0.01500   0.00010
N5641     0.02330   0.04710   0.03030   0.00200  -0.00030  -0.00130
N5642     0.02450   0.05650   0.03410   0.00140   0.00040  -0.00230
C5643     0.02400   0.07500   0.03410   0.00840   0.00570  -0.01140
C5645     0.02660   0.09300   0.03870   0.00000   0.00480  -0.00300
C5647     0.02540   0.13000   0.04900  -0.00200  -0.00310  -0.02800
C5649     0.02480   0.15200   0.05000   0.00000  -0.00010  -0.01500
N5651     0.02330   0.04710   0.03030   0.00200   0.00030   0.00130
N5652     0.02450   0.05650   0.03410   0.00140  -0.00040   0.00230
C5653     0.02400   0.07500   0.03410   0.00840  -0.00570   0.01140
C5655     0.02660   0.09300   0.03870   0.00000  -0.00480   0.00300
C5657     0.02540   0.13000   0.04900  -0.00200   0.00310   0.02800
C5659     0.02480   0.15200   0.05000   0.00000   0.00010   0.01500
N5661     0.04710   0.02330   0.03030  -0.00200  -0.00130   0.00030
N5662     0.05650   0.02450   0.03410  -0.00140  -0.00230  -0.00040
C5663     0.07500   0.02400   0.03410  -0.00840  -0.01140  -0.00570
C5665     0.09300   0.02660   0.03870   0.00000  -0.00300  -0.00480
C5667     0.13000   0.02540   0.04900   0.00200  -0.02800   0.00310
C5669     0.15200   0.02480   0.05000   0.00000  -0.01500   0.00010
N5671     0.04710   0.02330   0.03030  -0.00200   0.00130  -0.00030
N5672     0.05650   0.02450   0.03410  -0.00140   0.00230   0.00040
C5673     0.07500   0.02400   0.03410  -0.00840   0.01140   0.00570
C5675     0.09300   0.02660   0.03870   0.00000   0.00300   0.00480
C5677     0.13000   0.02540   0.04900   0.00200   0.02800  -0.00310
C5679     0.15200   0.02480   0.05000   0.00000   0.01500  -0.00010
Co5681    0.02490   0.02490   0.02650  -0.00028  -0.00071   0.00071
Co5682    0.02490   0.02490   0.02650  -0.00028   0.00071  -0.00071
Co5683    0.02490   0.02490   0.02650   0.00028  -0.00071  -0.00071
Co5684    0.02490   0.02490   0.02650   0.00028   0.00071   0.00071
C5685     0.01940   0.07600   0.04700   0.00000   0.00000   0.01000
C5686     0.02310   0.06200   0.03900   0.00000   0.00000   0.00900
C5687     0.02250   0.08400   0.04600   0.00000   0.00000   0.03100
C5688     0.02300   0.08800   0.05200   0.00000   0.00000  -0.00900
C5689     0.01940   0.07600   0.04700   0.00000   0.00000  -0.01000
C5690     0.02310   0.06200   0.03900   0.00000   0.00000  -0.00900
C5691     0.02250   0.08400   0.04600   0.00000   0.00000  -0.03100
C5692     0.02300   0.08800   0.05200   0.00000   0.00000   0.00900
C5693     0.07600   0.01940   0.04700   0.00000  -0.01000   0.00000
C5694     0.06200   0.02310   0.03900   0.00000  -0.00900   0.00000
C5695     0.08400   0.02250   0.04600   0.00000  -0.03100   0.00000
C5696     0.08800   0.02300   0.05200   0.00000   0.00900   0.00000
C5697     0.07600   0.01940   0.04700   0.00000   0.01000   0.00000
C5698     0.06200   0.02310   0.03900   0.00000   0.00900   0.00000
C5699     0.08400   0.02250   0.04600   0.00000   0.03100   0.00000
C5700     0.08800   0.02300   0.05200   0.00000  -0.00900   0.00000
N5701     0.02330   0.04710   0.03030  -0.00200  -0.00030   0.00130
N5702     0.02450   0.05650   0.03410  -0.00140   0.00040   0.00230
C5703     0.02400   0.07500   0.03410  -0.00840   0.00570   0.01140
C5705     0.02660   0.09300   0.03870   0.00000   0.00480   0.00300
C5707     0.02540   0.13000   0.04900   0.00200  -0.00310   0.02800
C5709     0.02480   0.15200   0.05000   0.00000  -0.00010   0.01500
N5711     0.02330   0.04710   0.03030  -0.00200   0.00030  -0.00130
N5712     0.02450   0.05650   0.03410  -0.00140  -0.00040  -0.00230
C5713     0.02400   0.07500   0.03410  -0.00840  -0.00570  -0.01140
C5715     0.02660   0.09300   0.03870   0.00000  -0.00480  -0.00300
C5717     0.02540   0.13000   0.04900   0.00200   0.00310  -0.02800
C5719     0.02480   0.15200   0.05000   0.00000   0.00010  -0.01500
N5721     0.04710   0.02330   0.03030   0.00200  -0.00130  -0.00030
N5722     0.05650   0.02450   0.03410   0.00140  -0.00230   0.00040
C5723     0.07500   0.02400   0.03410   0.00840  -0.01140   0.00570
C5725     0.09300   0.02660   0.03870   0.00000  -0.00300   0.00480
C5727     0.13000   0.02540   0.04900  -0.00200  -0.02800  -0.00310
C5729     0.15200   0.02480   0.05000   0.00000  -0.01500  -0.00010
N5731     0.04710   0.02330   0.03030   0.00200   0.00130   0.00030
N5732     0.05650   0.02450   0.03410   0.00140   0.00230  -0.00040
C5733     0.07500   0.02400   0.03410   0.00840   0.01140  -0.00570
C5735     0.09300   0.02660   0.03870   0.00000   0.00300  -0.00480
C5737     0.13000   0.02540   0.04900  -0.00200   0.02800   0.00310
C5739     0.15200   0.02480   0.05000   0.00000   0.01500   0.00010
N5741     0.02330   0.04710   0.03030   0.00200  -0.00030  -0.00130
N5742     0.02450   0.05650   0.03410   0.00140   0.00040  -0.00230
C5743     0.02400   0.07500   0.03410   0.00840   0.00570  -0.01140
C5745     0.02660   0.09300   0.03870   0.00000   0.00480  -0.00300
C5747     0.02540   0.13000   0.04900  -0.00200  -0.00310  -0.02800
C5749     0.02480   0.15200   0.05000   0.00000  -0.00010  -0.01500
N5751     0.02330   0.04710   0.03030   0.00200   0.00030   0.00130
N5752     0.02450   0.05650   0.03410   0.00140  -0.00040   0.00230
C5753     0.02400   0.07500   0.03410   0.00840  -0.00570   0.01140
C5755     0.02660   0.09300   0.03870   0.00000  -0.00480   0.00300
C5757     0.02540   0.13000   0.04900  -0.00200   0.00310   0.02800
C5759     0.02480   0.15200   0.05000   0.00000   0.00010   0.01500
N5761     0.04710   0.02330   0.03030  -0.00200  -0.00130   0.00030
N5762     0.05650   0.02450   0.03410  -0.00140  -0.00230  -0.00040
C5763     0.07500   0.02400   0.03410  -0.00840  -0.01140  -0.00570
C5765     0.09300   0.02660   0.03870   0.00000  -0.00300  -0.00480
C5767     0.13000   0.02540   0.04900   0.00200  -0.02800   0.00310
C5769     0.15200   0.02480   0.05000   0.00000  -0.01500   0.00010
N5771     0.04710   0.02330   0.03030  -0.00200   0.00130  -0.00030
N5772     0.05650   0.02450   0.03410  -0.00140   0.00230   0.00040
C5773     0.07500   0.02400   0.03410  -0.00840   0.01140   0.00570
C5775     0.09300   0.02660   0.03870   0.00000   0.00300   0.00480
C5777     0.13000   0.02540   0.04900   0.00200   0.02800  -0.00310
C5779     0.15200   0.02480   0.05000   0.00000   0.01500  -0.00010
Co5781    0.02490   0.02490   0.02650  -0.00028  -0.00071   0.00071
Co5782    0.02490   0.02490   0.02650  -0.00028   0.00071  -0.00071
Co5783    0.02490   0.02490   0.02650   0.00028  -0.00071  -0.00071
Co5784    0.02490   0.02490   0.02650   0.00028   0.00071   0.00071
C5785     0.01940   0.07600   0.04700   0.00000   0.00000   0.01000
C5786     0.02310   0.06200   0.03900   0.00000   0.00000   0.00900
C5787     0.02250   0.08400   0.04600   0.00000   0.00000   0.03100
C5788     0.02300   0.08800   0.05200   0.00000   0.00000  -0.00900
C5789     0.01940   0.07600   0.04700   0.00000   0.00000  -0.01000
C5790     0.02310   0.06200   0.03900   0.00000   0.00000  -0.00900
C5791     0.02250   0.08400   0.04600   0.00000   0.00000  -0.03100
C5792     0.02300   0.08800   0.05200   0.00000   0.00000   0.00900
C5793     0.07600   0.01940   0.04700   0.00000  -0.01000   0.00000
C5794     0.06200   0.02310   0.03900   0.00000  -0.00900   0.00000
C5795     0.08400   0.02250   0.04600   0.00000  -0.03100   0.00000
C5796     0.08800   0.02300   0.05200   0.00000   0.00900   0.00000
C5797     0.07600   0.01940   0.04700   0.00000   0.01000   0.00000
C5798     0.06200   0.02310   0.03900   0.00000   0.00900   0.00000
C5799     0.08400   0.02250   0.04600   0.00000   0.03100   0.00000
C5800     0.08800   0.02300   0.05200   0.00000  -0.00900   0.00000
N5801     0.02330   0.04710   0.03030  -0.00200  -0.00030   0.00130
N5802     0.02450   0.05650   0.03410  -0.00140   0.00040   0.00230
C5803     0.02400   0.07500   0.03410  -0.00840   0.00570   0.01140
C5805     0.02660   0.09300   0.03870   0.00000   0.00480   0.00300
C5807     0.02540   0.13000   0.04900   0.00200  -0.00310   0.02800
C5809     0.02480   0.15200   0.05000   0.00000  -0.00010   0.01500
N5811     0.02330   0.04710   0.03030  -0.00200   0.00030  -0.00130
N5812     0.02450   0.05650   0.03410  -0.00140  -0.00040  -0.00230
C5813     0.02400   0.07500   0.03410  -0.00840  -0.00570  -0.01140
C5815     0.02660   0.09300   0.03870   0.00000  -0.00480  -0.00300
C5817     0.02540   0.13000   0.04900   0.00200   0.00310  -0.02800
C5819     0.02480   0.15200   0.05000   0.00000   0.00010  -0.01500
N5821     0.04710   0.02330   0.03030   0.00200  -0.00130  -0.00030
N5822     0.05650   0.02450   0.03410   0.00140  -0.00230   0.00040
C5823     0.07500   0.02400   0.03410   0.00840  -0.01140   0.00570
C5825     0.09300   0.02660   0.03870   0.00000  -0.00300   0.00480
C5827     0.13000   0.02540   0.04900  -0.00200  -0.02800  -0.00310
C5829     0.15200   0.02480   0.05000   0.00000  -0.01500  -0.00010
N5831     0.04710   0.02330   0.03030   0.00200   0.00130   0.00030
N5832     0.05650   0.02450   0.03410   0.00140   0.00230  -0.00040
C5833     0.07500   0.02400   0.03410   0.00840   0.01140  -0.00570
C5835     0.09300   0.02660   0.03870   0.00000   0.00300  -0.00480
C5837     0.13000   0.02540   0.04900  -0.00200   0.02800   0.00310
C5839     0.15200   0.02480   0.05000   0.00000   0.01500   0.00010
N5841     0.02330   0.04710   0.03030   0.00200  -0.00030  -0.00130
N5842     0.02450   0.05650   0.03410   0.00140   0.00040  -0.00230
C5843     0.02400   0.07500   0.03410   0.00840   0.00570  -0.01140
C5845     0.02660   0.09300   0.03870   0.00000   0.00480  -0.00300
C5847     0.02540   0.13000   0.04900  -0.00200  -0.00310  -0.02800
C5849     0.02480   0.15200   0.05000   0.00000  -0.00010  -0.01500
N5851     0.02330   0.04710   0.03030   0.00200   0.00030   0.00130
N5852     0.02450   0.05650   0.03410   0.00140  -0.00040   0.00230
C5853     0.02400   0.07500   0.03410   0.00840  -0.00570   0.01140
C5855     0.02660   0.09300   0.03870   0.00000  -0.00480   0.00300
C5857     0.02540   0.13000   0.04900  -0.00200   0.00310   0.02800
C5859     0.02480   0.15200   0.05000   0.00000   0.00010   0.01500
N5861     0.04710   0.02330   0.03030  -0.00200  -0.00130   0.00030
N5862     0.05650   0.02450   0.03410  -0.00140  -0.00230  -0.00040
C5863     0.07500   0.02400   0.03410  -0.00840  -0.01140  -0.00570
C5865     0.09300   0.02660   0.03870   0.00000  -0.00300  -0.00480
C5867     0.13000   0.02540   0.04900   0.00200  -0.02800   0.00310
C5869     0.15200   0.02480   0.05000   0.00000  -0.01500   0.00010
N5871     0.04710   0.02330   0.03030  -0.00200   0.00130  -0.00030
N5872     0.05650   0.02450   0.03410  -0.00140   0.00230   0.00040
C5873     0.07500   0.02400   0.03410  -0.00840   0.01140   0.00570
C5875     0.09300   0.02660   0.03870   0.00000   0.00300   0.00480
C5877     0.13000   0.02540   0.04900   0.00200   0.02800  -0.00310
C5879     0.15200   0.02480   0.05000   0.00000   0.01500  -0.00010
Co5881    0.02490   0.02490   0.02650  -0.00028  -0.00071   0.00071
Co5882    0.02490   0.02490   0.02650  -0.00028   0.00071  -0.00071
Co5883    0.02490   0.02490   0.02650   0.00028  -0.00071  -0.00071
Co5884    0.02490   0.02490   0.02650   0.00028   0.00071   0.00071
C5885     0.01940   0.07600   0.04700   0.00000   0.00000   0.01000
C5886     0.02310   0.06200   0.03900   0.00000   0.00000   0.00900
C5887     0.02250   0.08400   0.04600   0.00000   0.00000   0.03100
C5888     0.02300   0.08800   0.05200   0.00000   0.00000  -0.00900
C5889     0.01940   0.07600   0.04700   0.00000   0.00000  -0.01000
C5890     0.02310   0.06200   0.03900   0.00000   0.00000  -0.00900
C5891     0.02250   0.08400   0.04600   0.00000   0.00000  -0.03100
C5892     0.02300   0.08800   0.05200   0.00000   0.00000   0.00900
C5893     0.07600   0.01940   0.04700   0.00000  -0.01000   0.00000
C5894     0.06200   0.02310   0.03900   0.00000  -0.00900   0.00000
C5895     0.08400   0.02250   0.04600   0.00000  -0.03100   0.00000
C5896     0.08800   0.02300   0.05200   0.00000   0.00900   0.00000
C5897     0.07600   0.01940   0.04700   0.00000   0.01000   0.00000
C5898     0.06200   0.02310   0.03900   0.00000   0.00900   0.00000
C5899     0.08400   0.02250   0.04600   0.00000   0.03100   0.00000
C5900     0.08800   0.02300   0.05200   0.00000  -0.00900   0.00000
N5901     0.02330   0.04710   0.03030  -0.00200  -0.00030   0.00130
N5902     0.02450   0.05650   0.03410  -0.00140   0.00040   0.00230
C5903     0.02400   0.07500   0.03410  -0.00840   0.00570   0.01140
C5905     0.02660   0.09300   0.03870   0.00000   0.00480   0.00300
C5907     0.02540   0.13000   0.04900   0.00200  -0.00310   0.02800
C5909     0.02480   0.15200   0.05000   0.00000  -0.00010   0.01500
N5911     0.02330   0.04710   0.03030  -0.00200   0.00030  -0.00130
N5912     0.02450   0.05650   0.03410  -0.00140  -0.00040  -0.00230
C5913     0.02400   0.07500   0.03410  -0.00840  -0.00570  -0.01140
C5915     0.02660   0.09300   0.03870   0.00000  -0.00480  -0.00300
C5917     0.02540   0.13000   0.04900   0.00200   0.00310  -0.02800
C5919     0.02480   0.15200   0.05000   0.00000   0.00010  -0.01500
N5921     0.04710   0.02330   0.03030   0.00200  -0.00130  -0.00030
N5922     0.05650   0.02450   0.03410   0.00140  -0.00230   0.00040
C5923     0.07500   0.02400   0.03410   0.00840  -0.01140   0.00570
C5925     0.09300   0.02660   0.03870   0.00000  -0.00300   0.00480
C5927     0.13000   0.02540   0.04900  -0.00200  -0.02800  -0.00310
C5929     0.15200   0.02480   0.05000   0.00000  -0.01500  -0.00010
N5931     0.04710   0.02330   0.03030   0.00200   0.00130   0.00030
N5932     0.05650   0.02450   0.03410   0.00140   0.00230  -0.00040
C5933     0.07500   0.02400   0.03410   0.00840   0.01140  -0.00570
C5935     0.09300   0.02660   0.03870   0.00000   0.00300  -0.00480
C5937     0.13000   0.02540   0.04900  -0.00200   0.02800   0.00310
C5939     0.15200   0.02480   0.05000   0.00000   0.01500   0.00010
N5941     0.02330   0.04710   0.03030   0.00200  -0.00030  -0.00130
N5942     0.02450   0.05650   0.03410   0.00140   0.00040  -0.00230
C5943     0.02400   0.07500   0.03410   0.00840   0.00570  -0.01140
C5945     0.02660   0.09300   0.03870   0.00000   0.00480  -0.00300
C5947     0.02540   0.13000   0.04900  -0.00200  -0.00310  -0.02800
C5949     0.02480   0.15200   0.05000   0.00000  -0.00010  -0.01500
N5951     0.02330   0.04710   0.03030   0.00200   0.00030   0.00130
N5952     0.02450   0.05650   0.03410   0.00140  -0.00040   0.00230
C5953     0.02400   0.07500   0.03410   0.00840  -0.00570   0.01140
C5955     0.02660   0.09300   0.03870   0.00000  -0.00480   0.00300
C5957     0.02540   0.13000   0.04900  -0.00200   0.00310   0.02800
C5959     0.02480   0.15200   0.05000   0.00000   0.00010   0.01500
N5961     0.04710   0.02330   0.03030  -0.00200  -0.00130   0.00030
N5962     0.05650   0.02450   0.03410  -0.00140  -0.00230  -0.00040
C5963     0.07500   0.02400   0.03410  -0.00840  -0.01140  -0.00570
C5965     0.09300   0.02660   0.03870   0.00000  -0.00300  -0.00480
C5967     0.13000   0.02540   0.04900   0.00200  -0.02800   0.00310
C5969     0.15200   0.02480   0.05000   0.00000  -0.01500   0.00010
N5971     0.04710   0.02330   0.03030  -0.00200   0.00130  -0.00030
N5972     0.05650   0.02450   0.03410  -0.00140   0.00230   0.00040
C5973     0.07500   0.02400   0.03410  -0.00840   0.01140   0.00570
C5975     0.09300   0.02660   0.03870   0.00000   0.00300   0.00480
C5977     0.13000   0.02540   0.04900   0.00200   0.02800  -0.00310
C5979     0.15200   0.02480   0.05000   0.00000   0.01500  -0.00010
Co5981    0.02490   0.02490   0.02650  -0.00028  -0.00071   0.00071
Co5982    0.02490   0.02490   0.02650  -0.00028   0.00071  -0.00071
Co5983    0.02490   0.02490   0.02650   0.00028  -0.00071  -0.00071
Co5984    0.02490   0.02490   0.02650   0.00028   0.00071   0.00071
C5985     0.01940   0.07600   0.04700   0.00000   0.00000   0.01000
C5986     0.02310   0.06200   0.03900   0.00000   0.00000   0.00900
C5987     0.02250   0.08400   0.04600   0.00000   0.00000   0.03100
C5988     0.02300   0.08800   0.05200   0.00000   0.00000  -0.00900
C5989     0.01940   0.07600   0.04700   0.00000   0.00000  -0.01000
C5990     0.02310   0.06200   0.03900   0.00000   0.00000  -0.00900
C5991     0.02250   0.08400   0.04600   0.00000   0.00000  -0.03100
C5992     0.02300   0.08800   0.05200   0.00000   0.00000   0.00900
C5993     0.07600   0.01940   0.04700   0.00000  -0.01000   0.00000
C5994     0.06200   0.02310   0.03900   0.00000  -0.00900   0.00000
C5995     0.08400   0.02250   0.04600   0.00000  -0.03100   0.00000
C5996     0.08800   0.02300   0.05200   0.00000   0.00900   0.00000
C5997     0.07600   0.01940   0.04700   0.00000   0.01000   0.00000
C5998     0.06200   0.02310   0.03900   0.00000   0.00900   0.00000
C5999     0.08400   0.02250   0.04600   0.00000   0.03100   0.00000
C6000     0.08800   0.02300   0.05200   0.00000  -0.00900   0.00000
N6001     0.02330   0.04710   0.03030  -0.00200  -0.00030   0.00130
N6002     0.02450   0.05650   0.03410  -0.00140   0.00040   0.00230
C6003     0.02400   0.07500   0.03410  -0.00840   0.00570   0.01140
C6005     0.02660   0.09300   0.03870   0.00000   0.00480   0.00300
C6007     0.02540   0.13000   0.04900   0.00200  -0.00310   0.02800
C6009     0.02480   0.15200   0.05000   0.00000  -0.00010   0.01500
N6011     0.02330   0.04710   0.03030  -0.00200   0.00030  -0.00130
N6012     0.02450   0.05650   0.03410  -0.00140  -0.00040  -0.00230
C6013     0.02400   0.07500   0.03410  -0.00840  -0.00570  -0.01140
C6015     0.02660   0.09300   0.03870   0.00000  -0.00480  -0.00300
C6017     0.02540   0.13000   0.04900   0.00200   0.00310  -0.02800
C6019     0.02480   0.15200   0.05000   0.00000   0.00010  -0.01500
N6021     0.04710   0.02330   0.03030   0.00200  -0.00130  -0.00030
N6022     0.05650   0.02450   0.03410   0.00140  -0.00230   0.00040
C6023     0.07500   0.02400   0.03410   0.00840  -0.01140   0.00570
C6025     0.09300   0.02660   0.03870   0.00000  -0.00300   0.00480
C6027     0.13000   0.02540   0.04900  -0.00200  -0.02800  -0.00310
C6029     0.15200   0.02480   0.05000   0.00000  -0.01500  -0.00010
N6031     0.04710   0.02330   0.03030   0.00200   0.00130   0.00030
N6032     0.05650   0.02450   0.03410   0.00140   0.00230  -0.00040
C6033     0.07500   0.02400   0.03410   0.00840   0.01140  -0.00570
C6035     0.09300   0.02660   0.03870   0.00000   0.00300  -0.00480
C6037     0.13000   0.02540   0.04900  -0.00200   0.02800   0.00310
C6039     0.15200   0.02480   0.05000   0.00000   0.01500   0.00010
N6041     0.02330   0.04710   0.03030   0.00200  -0.00030  -0.00130
N6042     0.02450   0.05650   0.03410   0.00140   0.00040  -0.00230
C6043     0.02400   0.07500   0.03410   0.00840   0.00570  -0.01140
C6045     0.02660   0.09300   0.03870   0.00000   0.00480  -0.00300
C6047     0.02540   0.13000   0.04900  -0.00200  -0.00310  -0.02800
C6049     0.02480   0.15200   0.05000   0.00000  -0.00010  -0.01500
N6051     0.02330   0.04710   0.03030   0.00200   0.00030   0.00130
N6052     0.02450   0.05650   0.03410   0.00140  -0.00040   0.00230
C6053     0.02400   0.07500   0.03410   0.00840  -0.00570   0.01140
C6055     0.02660   0.09300   0.03870   0.00000  -0.00480   0.00300
C6057     0.02540   0.13000   0.04900  -0.00200   0.00310   0.02800
C6059     0.02480   0.15200   0.05000   0.00000   0.00010   0.01500
N6061     0.04710   0.02330   0.03030  -0.00200  -0.00130   0.00030
N6062     0.05650   0.02450   0.03410  -0.00140  -0.00230  -0.00040
C6063     0.07500   0.02400   0.03410  -0.00840  -0.01140  -0.00570
C6065     0.09300   0.02660   0.03870   0.00000  -0.00300  -0.00480
C6067     0.13000   0.02540   0.04900   0.00200  -0.02800   0.00310
C6069     0.15200   0.02480   0.05000   0.00000  -0.01500   0.00010
N6071     0.04710   0.02330   0.03030  -0.00200   0.00130  -0.00030
N6072     0.05650   0.02450   0.03410  -0.00140   0.00230   0.00040
C6073     0.07500   0.02400   0.03410  -0.00840   0.01140   0.00570
C6075     0.09300   0.02660   0.03870   0.00000   0.00300   0.00480
C6077     0.13000   0.02540   0.04900   0.00200   0.02800  -0.00310
C6079     0.15200   0.02480   0.05000   0.00000   0.01500  -0.00010
Co6081    0.02490   0.02490   0.02650  -0.00028  -0.00071   0.00071
Co6082    0.02490   0.02490   0.02650  -0.00028   0.00071  -0.00071
Co6083    0.02490   0.02490   0.02650   0.00028  -0.00071  -0.00071
Co6084    0.02490   0.02490   0.02650   0.00028   0.00071   0.00071
C6085     0.01940   0.07600   0.04700   0.00000   0.00000   0.01000
C6086     0.02310   0.06200   0.03900   0.00000   0.00000   0.00900
C6087     0.02250   0.08400   0.04600   0.00000   0.00000   0.03100
C6088     0.02300   0.08800   0.05200   0.00000   0.00000  -0.00900
C6089     0.01940   0.07600   0.04700   0.00000   0.00000  -0.01000
C6090     0.02310   0.06200   0.03900   0.00000   0.00000  -0.00900
C6091     0.02250   0.08400   0.04600   0.00000   0.00000  -0.03100
C6092     0.02300   0.08800   0.05200   0.00000   0.00000   0.00900
C6093     0.07600   0.01940   0.04700   0.00000  -0.01000   0.00000
C6094     0.06200   0.02310   0.03900   0.00000  -0.00900   0.00000
C6095     0.08400   0.02250   0.04600   0.00000  -0.03100   0.00000
C6096     0.08800   0.02300   0.05200   0.00000   0.00900   0.00000
C6097     0.07600   0.01940   0.04700   0.00000   0.01000   0.00000
C6098     0.06200   0.02310   0.03900   0.00000   0.00900   0.00000
C6099     0.08400   0.02250   0.04600   0.00000   0.03100   0.00000
C6100     0.08800   0.02300   0.05200   0.00000  -0.00900   0.00000
N6101     0.02330   0.04710   0.03030  -0.00200  -0.00030   0.00130
N6102     0.02450   0.05650   0.03410  -0.00140   0.00040   0.00230
C6103     0.02400   0.07500   0.03410  -0.00840   0.00570   0.01140
C6105     0.02660   0.09300   0.03870   0.00000   0.00480   0.00300
C6107     0.02540   0.13000   0.04900   0.00200  -0.00310   0.02800
C6109     0.02480   0.15200   0.05000   0.00000  -0.00010   0.01500
N6111     0.02330   0.04710   0.03030  -0.00200   0.00030  -0.00130
N6112     0.02450   0.05650   0.03410  -0.00140  -0.00040  -0.00230
C6113     0.02400   0.07500   0.03410  -0.00840  -0.00570  -0.01140
C6115     0.02660   0.09300   0.03870   0.00000  -0.00480  -0.00300
C6117     0.02540   0.13000   0.04900   0.00200   0.00310  -0.02800
C6119     0.02480   0.15200   0.05000   0.00000   0.00010  -0.01500
N6121     0.04710   0.02330   0.03030   0.00200  -0.00130  -0.00030
N6122     0.05650   0.02450   0.03410   0.00140  -0.00230   0.00040
C6123     0.07500   0.02400   0.03410   0.00840  -0.01140   0.00570
C6125     0.09300   0.02660   0.03870   0.00000  -0.00300   0.00480
C6127     0.13000   0.02540   0.04900  -0.00200  -0.02800  -0.00310
C6129     0.15200   0.02480   0.05000   0.00000  -0.01500  -0.00010
N6131     0.04710   0.02330   0.03030   0.00200   0.00130   0.00030
N6132     0.05650   0.02450   0.03410   0.00140   0.00230  -0.00040
C6133     0.07500   0.02400   0.03410   0.00840   0.01140  -0.00570
C6135     0.09300   0.02660   0.03870   0.00000   0.00300  -0.00480
C6137     0.13000   0.02540   0.04900  -0.00200   0.02800   0.00310
C6139     0.15200   0.02480   0.05000   0.00000   0.01500   0.00010
N6141     0.02330   0.04710   0.03030   0.00200  -0.00030  -0.00130
N6142     0.02450   0.05650   0.03410   0.00140   0.00040  -0.00230
C6143     0.02400   0.07500   0.03410   0.00840   0.00570  -0.01140
C6145     0.02660   0.09300   0.03870   0.00000   0.00480  -0.00300
C6147     0.02540   0.13000   0.04900  -0.00200  -0.00310  -0.02800
C6149     0.02480   0.15200   0.05000   0.00000  -0.00010  -0.01500
N6151     0.02330   0.04710   0.03030   0.00200   0.00030   0.00130
N6152     0.02450   0.05650   0.03410   0.00140  -0.00040   0.00230
C6153     0.02400   0.07500   0.03410   0.00840  -0.00570   0.01140
C6155     0.02660   0.09300   0.03870   0.00000  -0.00480   0.00300
C6157     0.02540   0.13000   0.04900  -0.00200   0.00310   0.02800
C6159     0.02480   0.15200   0.05000   0.00000   0.00010   0.01500
N6161     0.04710   0.02330   0.03030  -0.00200  -0.00130   0.00030
N6162     0.05650   0.02450   0.03410  -0.00140  -0.00230  -0.00040
C6163     0.07500   0.02400   0.03410  -0.00840  -0.01140  -0.00570
C6165     0.09300   0.02660   0.03870   0.00000  -0.00300  -0.00480
C6167     0.13000   0.02540   0.04900   0.00200  -0.02800   0.00310
C6169     0.15200   0.02480   0.05000   0.00000  -0.01500   0.00010
N6171     0.04710   0.02330   0.03030  -0.00200   0.00130  -0.00030
N6172     0.05650   0.02450   0.03410  -0.00140   0.00230   0.00040
C6173     0.07500   0.02400   0.03410  -0.00840   0.01140   0.00570
C6175     0.09300   0.02660   0.03870   0.00000   0.00300   0.00480
C6177     0.13000   0.02540   0.04900   0.00200   0.02800  -0.00310
C6179     0.15200   0.02480   0.05000   0.00000   0.01500  -0.00010
Co6181    0.02490   0.02490   0.02650  -0.00028  -0.00071   0.00071
Co6182    0.02490   0.02490   0.02650  -0.00028   0.00071  -0.00071
Co6183    0.02490   0.02490   0.02650   0.00028  -0.00071  -0.00071
Co6184    0.02490   0.02490   0.02650   0.00028   0.00071   0.00071
C6185     0.01940   0.07600   0.04700   0.00000   0.00000   0.01000
C6186     0.02310   0.06200   0.03900   0.00000   0.00000   0.00900
C6187     0.02250   0.08400   0.04600   0.00000   0.00000   0.03100
C6188     0.02300   0.08800   0.05200   0.00000   0.00000  -0.00900
C6189     0.01940   0.07600   0.04700   0.00000   0.00000  -0.01000
C6190     0.02310   0.06200   0.03900   0.00000   0.00000  -0.00900
C6191     0.02250   0.08400   0.04600   0.00000   0.00000  -0.03100
C6192     0.02300   0.08800   0.05200   0.00000   0.00000   0.00900
C6193     0.07600   0.01940   0.04700   0.00000  -0.01000   0.00000
C6194     0.06200   0.02310   0.03900   0.00000  -0.00900   0.00000
C6195     0.08400   0.02250   0.04600   0.00000  -0.03100   0.00000
C6196     0.08800   0.02300   0.05200   0.00000   0.00900   0.00000
C6197     0.07600   0.01940   0.04700   0.00000   0.01000   0.00000
C6198     0.06200   0.02310   0.03900   0.00000   0.00900   0.00000
C6199     0.08400   0.02250   0.04600   0.00000   0.03100   0.00000
C6200     0.08800   0.02300   0.05200   0.00000  -0.00900   0.00000
N6201     0.02330   0.04710   0.03030  -0.00200  -0.00030   0.00130
N6202     0.02450   0.05650   0.03410  -0.00140   0.00040   0.00230
C6203     0.02400   0.07500   0.03410  -0.00840   0.00570   0.01140
C6205     0.02660   0.09300   0.03870   0.00000   0.00480   0.00300
C6207     0.02540   0.13000   0.04900   0.00200  -0.00310   0.02800
C6209     0.02480   0.15200   0.05000   0.00000  -0.00010   0.01500
N6211     0.02330   0.04710   0.03030  -0.00200   0.00030  -0.00130
N6212     0.02450   0.05650   0.03410  -0.00140  -0.00040  -0.00230
C6213     0.02400   0.07500   0.03410  -0.00840  -0.00570  -0.01140
C6215     0.02660   0.09300   0.03870   0.00000  -0.00480  -0.00300
C6217     0.02540   0.13000   0.04900   0.00200   0.00310  -0.02800
C6219     0.02480   0.15200   0.05000   0.00000   0.00010  -0.01500
N6221     0.04710   0.02330   0.03030   0.00200  -0.00130  -0.00030
N6222     0.05650   0.02450   0.03410   0.00140  -0.00230   0.00040
C6223     0.07500   0.02400   0.03410   0.00840  -0.01140   0.00570
C6225     0.09300   0.02660   0.03870   0.00000  -0.00300   0.00480
C6227     0.13000   0.02540   0.04900  -0.00200  -0.02800  -0.00310
C6229     0.15200   0.02480   0.05000   0.00000  -0.01500  -0.00010
N6231     0.04710   0.02330   0.03030   0.00200   0.00130   0.00030
N6232     0.05650   0.02450   0.03410   0.00140   0.00230  -0.00040
C6233     0.07500   0.02400   0.03410   0.00840   0.01140  -0.00570
C6235     0.09300   0.02660   0.03870   0.00000   0.00300  -0.00480
C6237     0.13000   0.02540   0.04900  -0.00200   0.02800   0.00310
C6239     0.15200   0.02480   0.05000   0.00000   0.01500   0.00010
N6241     0.02330   0.04710   0.03030   0.00200  -0.00030  -0.00130
N6242     0.02450   0.05650   0.03410   0.00140   0.00040  -0.00230
C6243     0.02400   0.07500   0.03410   0.00840   0.00570  -0.01140
C6245     0.02660   0.09300   0.03870   0.00000   0.00480  -0.00300
C6247     0.02540   0.13000   0.04900  -0.00200  -0.00310  -0.02800
C6249     0.02480   0.15200   0.05000   0.00000  -0.00010  -0.01500
N6251     0.02330   0.04710   0.03030   0.00200   0.00030   0.00130
N6252     0.02450   0.05650   0.03410   0.00140  -0.00040   0.00230
C6253     0.02400   0.07500   0.03410   0.00840  -0.00570   0.01140
C6255     0.02660   0.09300   0.03870   0.00000  -0.00480   0.00300
C6257     0.02540   0.13000   0.04900  -0.00200   0.00310   0.02800
C6259     0.02480   0.15200   0.05000   0.00000   0.00010   0.01500
N6261     0.04710   0.02330   0.03030  -0.00200  -0.00130   0.00030
N6262     0.05650   0.02450   0.03410  -0.00140  -0.00230  -0.00040
C6263     0.07500   0.02400   0.03410  -0.00840  -0.01140  -0.00570
C6265     0.09300   0.02660   0.03870   0.00000  -0.00300  -0.00480
C6267     0.13000   0.02540   0.04900   0.00200  -0.02800   0.00310
C6269     0.15200   0.02480   0.05000   0.00000  -0.01500   0.00010
N6271     0.04710   0.02330   0.03030  -0.00200   0.00130  -0.00030
N6272     0.05650   0.02450   0.03410  -0.00140   0.00230   0.00040
C6273     0.07500   0.02400   0.03410  -0.00840   0.01140   0.00570
C6275     0.09300   0.02660   0.03870   0.00000   0.00300   0.00480
C6277     0.13000   0.02540   0.04900   0.00200   0.02800  -0.00310
C6279     0.15200   0.02480   0.05000   0.00000   0.01500  -0.00010
Co6281    0.02490   0.02490   0.02650  -0.00028  -0.00071   0.00071
Co6282    0.02490   0.02490   0.02650  -0.00028   0.00071  -0.00071
Co6283    0.02490   0.02490   0.02650   0.00028  -0.00071  -0.00071
Co6284    0.02490   0.02490   0.02650   0.00028   0.00071   0.00071
C6285     0.01940   0.07600   0.04700   0.00000   0.00000   0.01000
C6286     0.02310   0.06200   0.03900   0.00000   0.00000   0.00900
C6287     0.02250   0.08400   0.04600   0.00000   0.00000   0.03100
C6288     0.02300   0.08800   0.05200   0.00000   0.00000  -0.00900
C6289     0.01940   0.07600   0.04700   0.00000   0.00000  -0.01000
C6290     0.02310   0.06200   0.03900   0.00000   0.00000  -0.00900
C6291     0.02250   0.08400   0.04600   0.00000   0.00000  -0.03100
C6292     0.02300   0.08800   0.05200   0.00000   0.00000   0.00900
C6293     0.07600   0.01940   0.04700   0.00000  -0.01000   0.00000
C6294     0.06200   0.02310   0.03900   0.00000  -0.00900   0.00000
C6295     0.08400   0.02250   0.04600   0.00000  -0.03100   0.00000
C6296     0.08800   0.02300   0.05200   0.00000   0.00900   0.00000
C6297     0.07600   0.01940   0.04700   0.00000   0.01000   0.00000
C6298     0.06200   0.02310   0.03900   0.00000   0.00900   0.00000
C6299     0.08400   0.02250   0.04600   0.00000   0.03100   0.00000
C6300     0.08800   0.02300   0.05200   0.00000  -0.00900   0.00000
N6301     0.02330   0.04710   0.03030  -0.00200  -0.00030   0.00130
N6302     0.02450   0.05650   0.03410  -0.00140   0.00040   0.00230
C6303     0.02400   0.07500   0.03410  -0.00840   0.00570   0.01140
C6305     0.02660   0.09300   0.03870   0.00000   0.00480   0.00300
C6307     0.02540   0.13000   0.04900   0.00200  -0.00310   0.02800
C6309     0.02480   0.15200   0.05000   0.00000  -0.00010   0.01500
N6311     0.02330   0.04710   0.03030  -0.00200   0.00030  -0.00130
N6312     0.02450   0.05650   0.03410  -0.00140  -0.00040  -0.00230
C6313     0.02400   0.07500   0.03410  -0.00840  -0.00570  -0.01140
C6315     0.02660   0.09300   0.03870   0.00000  -0.00480  -0.00300
C6317     0.02540   0.13000   0.04900   0.00200   0.00310  -0.02800
C6319     0.02480   0.15200   0.05000   0.00000   0.00010  -0.01500
N6321     0.04710   0.02330   0.03030   0.00200  -0.00130  -0.00030
N6322     0.05650   0.02450   0.03410   0.00140  -0.00230   0.00040
C6323     0.07500   0.02400   0.03410   0.00840  -0.01140   0.00570
C6325     0.09300   0.02660   0.03870   0.00000  -0.00300   0.00480
C6327     0.13000   0.02540   0.04900  -0.00200  -0.02800  -0.00310
C6329     0.15200   0.02480   0.05000   0.00000  -0.01500  -0.00010
N6331     0.04710   0.02330   0.03030   0.00200   0.00130   0.00030
N6332     0.05650   0.02450   0.03410   0.00140   0.00230  -0.00040
C6333     0.07500   0.02400   0.03410   0.00840   0.01140  -0.00570
C6335     0.09300   0.02660   0.03870   0.00000   0.00300  -0.00480
C6337     0.13000   0.02540   0.04900  -0.00200   0.02800   0.00310
C6339     0.15200   0.02480   0.05000   0.00000   0.01500   0.00010
N6341     0.02330   0.04710   0.03030   0.00200  -0.00030  -0.00130
N6342     0.02450   0.05650   0.03410   0.00140   0.00040  -0.00230
C6343     0.02400   0.07500   0.03410   0.00840   0.00570  -0.01140
C6345     0.02660   0.09300   0.03870   0.00000   0.00480  -0.00300
C6347     0.02540   0.13000   0.04900  -0.00200  -0.00310  -0.02800
C6349     0.02480   0.15200   0.05000   0.00000  -0.00010  -0.01500
N6351     0.02330   0.04710   0.03030   0.00200   0.00030   0.00130
N6352     0.02450   0.05650   0.03410   0.00140  -0.00040   0.00230
C6353     0.02400   0.07500   0.03410   0.00840  -0.00570   0.01140
C6355     0.02660   0.09300   0.03870   0.00000  -0.00480   0.00300
C6357     0.02540   0.13000   0.04900  -0.00200   0.00310   0.02800
C6359     0.02480   0.15200   0.05000   0.00000   0.00010   0.01500
N6361     0.04710   0.02330   0.03030  -0.00200  -0.00130   0.00030
N6362     0.05650   0.02450   0.03410  -0.00140  -0.00230  -0.00040
C6363     0.07500   0.02400   0.03410  -0.00840  -0.01140  -0.00570
C6365     0.09300   0.02660   0.03870   0.00000  -0.00300  -0.00480
C6367     0.13000   0.02540   0.04900   0.00200  -0.02800   0.00310
C6369     0.15200   0.02480   0.05000   0.00000  -0.01500   0.00010
N6371     0.04710   0.02330   0.03030  -0.00200   0.00130  -0.00030
N6372     0.05650   0.02450   0.03410  -0.00140   0.00230   0.00040
C6373     0.07500   0.02400   0.03410  -0.00840   0.01140   0.00570
C6375     0.09300   0.02660   0.03870   0.00000   0.00300   0.00480
C6377     0.13000   0.02540   0.04900   0.00200   0.02800  -0.00310
C6379     0.15200   0.02480   0.05000   0.00000   0.01500  -0.00010
Co6381    0.02490   0.02490   0.02650  -0.00028  -0.00071   0.00071
Co6382    0.02490   0.02490   0.02650  -0.00028   0.00071  -0.00071
Co6383    0.02490   0.02490   0.02650   0.00028  -0.00071  -0.00071
Co6384    0.02490   0.02490   0.02650   0.00028   0.00071   0.00071
C6385     0.01940   0.07600   0.04700   0.00000   0.00000   0.01000
C6386     0.02310   0.06200   0.03900   0.00000   0.00000   0.00900
C6387     0.02250   0.08400   0.04600   0.00000   0.00000   0.03100
C6388     0.02300   0.08800   0.05200   0.00000   0.00000  -0.00900
C6389     0.01940   0.07600   0.04700   0.00000   0.00000  -0.01000
C6390     0.02310   0.06200   0.03900   0.00000   0.00000  -0.00900
C6391     0.02250   0.08400   0.04600   0.00000   0.00000  -0.03100
C6392     0.02300   0.08800   0.05200   0.00000   0.00000   0.00900
C6393     0.07600   0.01940   0.04700   0.00000  -0.01000   0.00000
C6394     0.06200   0.02310   0.03900   0.00000  -0.00900   0.00000
C6395     0.08400   0.02250   0.04600   0.00000  -0.03100   0.00000
C6396     0.08800   0.02300   0.05200   0.00000   0.00900   0.00000
C6397     0.07600   0.01940   0.04700   0.00000   0.01000   0.00000
C6398     0.06200   0.02310   0.03900   0.00000   0.00900   0.00000
C6399     0.08400   0.02250   0.04600   0.00000   0.03100   0.00000
C6400     0.08800   0.02300   0.05200   0.00000  -0.00900   0.00000
loop_
_geom_bond_atom_site_label_1
_geom_bond_atom_site_label_2
_geom_bond_distance
_geom_bond_site_symmetry_2
_ccdc_geom_bond_type
N1     Co81    1.980   .     S
N1     C3      1.327   .     S
N1     N451    1.357   .     S
N2     C5      1.335   .     S
N2     Co384   1.976   1_455 S
N2     N1252   1.349   1_545 S
C3     H4      0.950   .     S
C3     C486    1.379   .     S
C5     C85     1.374   .     S
C5     H6      0.950   .     S
C7     C88     1.372   .     S
C7     H8      0.949   .     S
C7     C9      1.372   .     S
C9     C87     1.375   .     S
C9     H10     0.949   .     S
N11    Co82    1.980   .     S
N11    C13     1.327   .     S
N11    N1241   1.357   1_545 S
N12    C15     1.335   .     S
N12    Co183   1.976   .     S
N12    N442    1.349   .     S
C13    H14     0.950   .     S
C13    C90     1.379   .     S
C15    C489    1.374   .     S
C15    H16     0.950   .     S
C17    C492    1.372   .     S
C17    H18     0.949   .     S
C17    C19     1.372   .     S
C19    C491    1.375   .     S
C19    H20     0.949   .     S
N21    Co83    1.980   .     S
N21    C23     1.327   .     S
N21    N361    1.357   1_455 S
N22    C25     1.335   .     S
N22    Co1281  1.976   1_545 S
N22    N162    1.349   .     S
C23    H24     0.950   .     S
C23    C94     1.379   .     S
C25    C193    1.374   .     S
C25    H26     0.950   .     S
C27    C196    1.372   .     S
C27    H28     0.949   .     S
C27    C29     1.372   .     S
C29    C195    1.375   .     S
C29    H30     0.949   .     S
N31    Co84    1.980   .     S
N31    C33     1.327   .     S
N31    N4971   1.357   1_554 S
N32    C35     1.335   .     S
N32    Co482   1.976   .     S
N32    N1972   1.349   1_455 S
C33    H34     0.950   .     S
C33    C198    1.379   .     S
C35    C1697   1.374   .     S
C35    H36     0.950   .     S
C37    C1700   1.372   .     S
C37    H38     0.949   .     S
C37    C39     1.372   .     S
C39    C1699   1.375   .     S
C39    H40     0.949   .     S
N41    Co83    1.980   .     S
N41    C43     1.327   .     S
N41    N411    1.357   .     S
N42    C45     1.335   .     S
N42    Co182   1.976   .     S
N42    N1212   1.349   1_545 S
C43    H44     0.950   .     S
C43    C490    1.379   .     S
C45    C89     1.374   .     S
C45    H46     0.950   .     S
C47    C92     1.372   .     S
C47    H48     0.949   .     S
C47    C49     1.372   .     S
C49    C91     1.375   .     S
C49    H50     0.949   .     S
N51    Co84    1.980   .     S
N51    C53     1.327   .     S
N51    N1201   1.357   1_545 S
N52    C55     1.335   .     S
N52    Co381   1.976   1_455 S
N52    N402    1.349   .     S
C53    H54     0.950   .     S
C53    C86     1.379   .     S
C55    C485    1.374   .     S
C55    H56     0.950   .     S
C57    C488    1.372   .     S
C57    H58     0.949   .     S
C57    C59     1.372   .     S
C59    C487    1.375   .     S
C59    H60     0.949   .     S
N61    Co81    1.980   .     S
N61    C63     1.327   .     S
N61    N121    1.357   .     S
N62    C65     1.335   .     S
N62    Co1283  1.976   1_545 S
N62    N322    1.349   1_455 S
C63    H64     0.950   .     S
C63    C194    1.379   .     S
C65    C93     1.374   .     S
C65    H66     0.950   .     S
C67    C96     1.372   .     S
C67    H68     0.949   .     S
C67    C69     1.372   .     S
C69    C95     1.375   .     S
C69    H70     0.949   .     S
N71    Co82    1.980   .     S
N71    C73     1.327   .     S
N71    N1931   1.357   1_455 S
N72    C75     1.335   .     S
N72    Co484   1.976   .     S
N72    N4932   1.349   1_554 S
C73    H74     0.950   .     S
C73    C1698   1.379   .     S
C75    C197    1.374   .     S
C75    H76     0.950   .     S
C77    C200    1.372   .     S
C77    H78     0.949   .     S
C77    C79     1.372   .     S
C79    C199    1.375   .     S
C79    H80     0.949   .     S
Co81   N422    1.976   .     S
Co81   N152    1.976   .     S
Co82   N1232   1.976   1_545 S
Co82   N342    1.976   1_455 S
Co83   N312    1.976   1_455 S
Co83   N462    1.976   .     S
Co84   N102    1.976   .     S
Co84   N1272   1.976   1_545 S
C85    C1255   1.374   1_545 S
C85    C88     1.490   .     S
C86    C1203   1.379   1_545 S
C86    C87     1.481   .     S
C87    C1259   1.375   1_545 S
C88    C1257   1.372   1_545 S
C89    C1215   1.374   1_545 S
C89    C92     1.490   .     S
C90    C1243   1.379   1_545 S
C90    C91     1.481   .     S
C91    C1219   1.375   1_545 S
C92    C1217   1.372   1_545 S
C93    C325    1.374   1_455 S
C93    C96     1.490   .     S
C94    C363    1.379   1_455 S
C94    C95     1.481   .     S
C95    C329    1.375   1_455 S
C96    C327    1.372   1_455 S
C97    C4835   1.374   1_554 S
C97    C375    1.374   1_455 S
C97    C100    1.490   .     S
C98    C333    1.379   1_455 S
C98    C4873   1.379   1_554 S
C98    C99     1.481   .     S
C99    C4839   1.375   1_554 S
C99    C379    1.375   1_455 S
C100   C4837   1.372   1_554 S
C100   C377    1.372   1_455 S
N101   Co181   1.980   .     S
N101   C103    1.327   .     S
N101   N551    1.357   .     S
N102   C105    1.335   .     S
N102   N1352   1.349   1_545 S
C103   H104    0.950   .     S
C103   C586    1.379   .     S
C105   C185    1.374   .     S
C105   H106    0.950   .     S
C107   C188    1.372   .     S
C107   H108    0.949   .     S
C107   C109    1.372   .     S
C109   C187    1.375   .     S
C109   H110    0.949   .     S
N111   Co182   1.980   .     S
N111   C113    1.327   .     S
N111   N1341   1.357   1_545 S
N112   C115    1.335   .     S
N112   Co283   1.976   .     S
N112   N542    1.349   .     S
C113   H114    0.950   .     S
C113   C190    1.379   .     S
C115   C589    1.374   .     S
C115   H116    0.950   .     S
C117   C592    1.372   .     S
C117   H118    0.949   .     S
C117   C119    1.372   .     S
C119   C591    1.375   .     S
C119   H120    0.949   .     S
N121   Co183   1.980   .     S
N121   C123    1.327   .     S
N122   C125    1.335   .     S
N122   Co1381  1.976   1_545 S
N122   N262    1.349   .     S
C123   H124    0.950   .     S
C123   C194    1.379   .     S
C125   C293    1.374   .     S
C125   H126    0.950   .     S
C127   C296    1.372   .     S
C127   H128    0.949   .     S
C127   C129    1.372   .     S
C129   C295    1.375   .     S
C129   H130    0.949   .     S
N131   Co184   1.980   .     S
N131   C133    1.327   .     S
N131   N5071   1.357   1_554 S
N132   C135    1.335   .     S
N132   Co582   1.976   .     S
N132   N1672   1.349   .     S
C133   H134    0.950   .     S
C133   C298    1.379   .     S
C135   C1797   1.374   .     S
C135   H136    0.950   .     S
C137   C1800   1.372   .     S
C137   H138    0.949   .     S
C137   C139    1.372   .     S
C139   C1799   1.375   .     S
C139   H140    0.949   .     S
N141   Co183   1.980   .     S
N141   C143    1.327   .     S
N141   N511    1.357   .     S
N142   C145    1.335   .     S
N142   Co282   1.976   .     S
N142   N1312   1.349   1_545 S
C143   H144    0.950   .     S
C143   C590    1.379   .     S
C145   C189    1.374   .     S
C145   H146    0.950   .     S
C147   C192    1.372   .     S
C147   H148    0.949   .     S
C147   C149    1.372   .     S
C149   C191    1.375   .     S
C149   H150    0.949   .     S
N151   Co184   1.980   .     S
N151   C153    1.327   .     S
N151   N1301   1.357   1_545 S
N152   C155    1.335   .     S
N152   N502    1.349   .     S
C153   H154    0.950   .     S
C153   C186    1.379   .     S
C155   C585    1.374   .     S
C155   H156    0.950   .     S
C157   C588    1.372   .     S
C157   H158    0.949   .     S
C157   C159    1.372   .     S
C159   C587    1.375   .     S
C159   H160    0.949   .     S
N161   Co181   1.980   .     S
N161   C163    1.327   .     S
N161   N221    1.357   .     S
N162   C165    1.335   .     S
N162   Co1383  1.976   1_545 S
C163   H164    0.950   .     S
C163   C294    1.379   .     S
C165   C193    1.374   .     S
C165   H166    0.950   .     S
C167   C196    1.372   .     S
C167   H168    0.949   .     S
C167   C169    1.372   .     S
C169   C195    1.375   .     S
C169   H170    0.949   .     S
N171   Co182   1.980   .     S
N171   C173    1.327   .     S
N171   N1631   1.357   .     S
N172   C175    1.335   .     S
N172   Co584   1.976   .     S
N172   N5032   1.349   1_554 S
C173   H174    0.950   .     S
C173   C1798   1.379   .     S
C175   C297    1.374   .     S
C175   H176    0.950   .     S
C177   C300    1.372   .     S
C177   H178    0.949   .     S
C177   C179    1.372   .     S
C179   C299    1.375   .     S
C179   H180    0.949   .     S
Co181  N522    1.976   .     S
Co181  N252    1.976   .     S
Co182  N1332   1.976   1_545 S
Co183  N562    1.976   .     S
Co184  N202    1.976   .     S
Co184  N1372   1.976   1_545 S
C185   C1355   1.374   1_545 S
C185   C188    1.490   .     S
C186   C1303   1.379   1_545 S
C186   C187    1.481   .     S
C187   C1359   1.375   1_545 S
C188   C1357   1.372   1_545 S
C189   C1315   1.374   1_545 S
C189   C192    1.490   .     S
C190   C1343   1.379   1_545 S
C190   C191    1.481   .     S
C191   C1319   1.375   1_545 S
C192   C1317   1.372   1_545 S
C193   C196    1.490   .     S
C194   C195    1.481   .     S
C197   C4935   1.374   1_554 S
C197   C200    1.490   .     S
C198   C4973   1.379   1_554 S
C198   C199    1.481   .     S
C199   C4939   1.375   1_554 S
C200   C4937   1.372   1_554 S
N201   Co281   1.980   .     S
N201   C203    1.327   .     S
N201   N651    1.357   .     S
N202   C205    1.335   .     S
N202   N1452   1.349   1_545 S
C203   H204    0.950   .     S
C203   C686    1.379   .     S
C205   C285    1.374   .     S
C205   H206    0.950   .     S
C207   C288    1.372   .     S
C207   H208    0.949   .     S
C207   C209    1.372   .     S
C209   C287    1.375   .     S
C209   H210    0.949   .     S
N211   Co282   1.980   .     S
N211   C213    1.327   .     S
N211   N1441   1.357   1_545 S
N212   C215    1.335   .     S
N212   Co383   1.976   .     S
N212   N642    1.349   .     S
C213   H214    0.950   .     S
C213   C290    1.379   .     S
C215   C689    1.374   .     S
C215   H216    0.950   .     S
C217   C692    1.372   .     S
C217   H218    0.949   .     S
C217   C219    1.372   .     S
C219   C691    1.375   .     S
C219   H220    0.949   .     S
N221   Co283   1.980   .     S
N221   C223    1.327   .     S
N222   C225    1.335   .     S
N222   Co1481  1.976   1_545 S
N222   N362    1.349   .     S
C223   H224    0.950   .     S
C223   C294    1.379   .     S
C225   C393    1.374   .     S
C225   H226    0.950   .     S
C227   C396    1.372   .     S
C227   H228    0.949   .     S
C227   C229    1.372   .     S
C229   C395    1.375   .     S
C229   H230    0.949   .     S
N231   Co284   1.980   .     S
N231   C233    1.327   .     S
N231   N5171   1.357   1_554 S
N232   C235    1.335   .     S
N232   Co682   1.976   .     S
N232   N1772   1.349   .     S
C233   H234    0.950   .     S
C233   C398    1.379   .     S
C235   C1897   1.374   .     S
C235   H236    0.950   .     S
C237   C1900   1.372   .     S
C237   H238    0.949   .     S
C237   C239    1.372   .     S
C239   C1899   1.375   .     S
C239   H240    0.949   .     S
N241   Co283   1.980   .     S
N241   C243    1.327   .     S
N241   N611    1.357   .     S
N242   C245    1.335   .     S
N242   Co382   1.976   .     S
N242   N1412   1.349   1_545 S
C243   H244    0.950   .     S
C243   C690    1.379   .     S
C245   C289    1.374   .     S
C245   H246    0.950   .     S
C247   C292    1.372   .     S
C247   H248    0.949   .     S
C247   C249    1.372   .     S
C249   C291    1.375   .     S
C249   H250    0.949   .     S
N251   Co284   1.980   .     S
N251   C253    1.327   .     S
N251   N1401   1.357   1_545 S
N252   C255    1.335   .     S
N252   N602    1.349   .     S
C253   H254    0.950   .     S
C253   C286    1.379   .     S
C255   C685    1.374   .     S
C255   H256    0.950   .     S
C257   C688    1.372   .     S
C257   H258    0.949   .     S
C257   C259    1.372   .     S
C259   C687    1.375   .     S
C259   H260    0.949   .     S
N261   Co281   1.980   .     S
N261   C263    1.327   .     S
N261   N321    1.357   .     S
N262   C265    1.335   .     S
N262   Co1483  1.976   1_545 S
C263   H264    0.950   .     S
C263   C394    1.379   .     S
C265   C293    1.374   .     S
C265   H266    0.950   .     S
C267   C296    1.372   .     S
C267   H268    0.949   .     S
C267   C269    1.372   .     S
C269   C295    1.375   .     S
C269   H270    0.949   .     S
N271   Co282   1.980   .     S
N271   C273    1.327   .     S
N271   N1731   1.357   .     S
N272   C275    1.335   .     S
N272   Co684   1.976   .     S
N272   N5132   1.349   1_554 S
C273   H274    0.950   .     S
C273   C1898   1.379   .     S
C275   C397    1.374   .     S
C275   H276    0.950   .     S
C277   C400    1.372   .     S
C277   H278    0.949   .     S
C277   C279    1.372   .     S
C279   C399    1.375   .     S
C279   H280    0.949   .     S
Co281  N622    1.976   .     S
Co281  N352    1.976   .     S
Co282  N1432   1.976   1_545 S
Co283  N662    1.976   .     S
Co284  N302    1.976   .     S
Co284  N1472   1.976   1_545 S
C285   C1455   1.374   1_545 S
C285   C288    1.490   .     S
C286   C1403   1.379   1_545 S
C286   C287    1.481   .     S
C287   C1459   1.375   1_545 S
C288   C1457   1.372   1_545 S
C289   C1415   1.374   1_545 S
C289   C292    1.490   .     S
C290   C1443   1.379   1_545 S
C290   C291    1.481   .     S
C291   C1419   1.375   1_545 S
C292   C1417   1.372   1_545 S
C293   C296    1.490   .     S
C294   C295    1.481   .     S
C297   C5035   1.374   1_554 S
C297   C300    1.490   .     S
C298   C5073   1.379   1_554 S
C298   C299    1.481   .     S
C299   C5039   1.375   1_554 S
C300   C5037   1.372   1_554 S
N301   Co381   1.980   .     S
N301   C303    1.327   .     S
N301   N751    1.357   .     S
N302   C305    1.335   .     S
N302   N1552   1.349   1_545 S
C303   H304    0.950   .     S
C303   C786    1.379   .     S
C305   C385    1.374   .     S
C305   H306    0.950   .     S
C307   C388    1.372   .     S
C307   H308    0.949   .     S
C307   C309    1.372   .     S
C309   C387    1.375   .     S
C309   H310    0.949   .     S
N311   Co382   1.980   .     S
N311   C313    1.327   .     S
N311   N1541   1.357   1_545 S
N312   C315    1.335   .     S
N312   Co83    1.976   1_655 S
N312   N742    1.349   .     S
C313   H314    0.950   .     S
C313   C390    1.379   .     S
C315   C789    1.374   .     S
C315   H316    0.950   .     S
C317   C792    1.372   .     S
C317   H318    0.949   .     S
C317   C319    1.372   .     S
C319   C791    1.375   .     S
C319   H320    0.949   .     S
N321   Co383   1.980   .     S
N321   C323    1.327   .     S
N322   C325    1.335   .     S
N322   Co1581  1.976   1_545 S
N322   N62     1.349   1_655 S
C323   H324    0.950   .     S
C323   C394    1.379   .     S
C325   C93     1.374   1_655 S
C325   H326    0.950   .     S
C327   C96     1.372   1_655 S
C327   H328    0.949   .     S
C327   C329    1.372   .     S
C329   C95     1.375   1_655 S
C329   H330    0.949   .     S
N331   Co384   1.980   .     S
N331   C333    1.327   .     S
N331   N4871   1.357   1_654 S
N332   C335    1.335   .     S
N332   Co782   1.976   .     S
N332   N1872   1.349   .     S
C333   H334    0.950   .     S
C333   C98     1.379   1_655 S
C335   C1997   1.374   .     S
C335   H336    0.950   .     S
C337   C2000   1.372   .     S
C337   H338    0.949   .     S
C337   C339    1.372   .     S
C339   C1999   1.375   .     S
C339   H340    0.949   .     S
N341   Co383   1.980   .     S
N341   C343    1.327   .     S
N341   N711    1.357   .     S
N342   C345    1.335   .     S
N342   Co82    1.976   1_655 S
N342   N1512   1.349   1_545 S
C343   H344    0.950   .     S
C343   C790    1.379   .     S
C345   C389    1.374   .     S
C345   H346    0.950   .     S
C347   C392    1.372   .     S
C347   H348    0.949   .     S
C347   C349    1.372   .     S
C349   C391    1.375   .     S
C349   H350    0.949   .     S
N351   Co384   1.980   .     S
N351   C353    1.327   .     S
N351   N1501   1.357   1_545 S
N352   C355    1.335   .     S
N352   N702    1.349   .     S
C353   H354    0.950   .     S
C353   C386    1.379   .     S
C355   C785    1.374   .     S
C355   H356    0.950   .     S
C357   C788    1.372   .     S
C357   H358    0.949   .     S
C357   C359    1.372   .     S
C359   C787    1.375   .     S
C359   H360    0.949   .     S
N361   Co381   1.980   .     S
N361   C363    1.327   .     S
N361   N21     1.357   1_655 S
N362   C365    1.335   .     S
N362   Co1583  1.976   1_545 S
C363   H364    0.950   .     S
C363   C94     1.379   1_655 S
C365   C393    1.374   .     S
C365   H366    0.950   .     S
C367   C396    1.372   .     S
C367   H368    0.949   .     S
C367   C369    1.372   .     S
C369   C395    1.375   .     S
C369   H370    0.949   .     S
N371   Co382   1.980   .     S
N371   C373    1.327   .     S
N371   N1831   1.357   .     S
N372   C375    1.335   .     S
N372   Co784   1.976   .     S
N372   N4832   1.349   1_654 S
C373   H374    0.950   .     S
C373   C1998   1.379   .     S
C375   C97     1.374   1_655 S
C375   H376    0.950   .     S
C377   C100    1.372   1_655 S
C377   H378    0.949   .     S
C377   C379    1.372   .     S
C379   C99     1.375   1_655 S
C379   H380    0.949   .     S
Co381  N722    1.976   .     S
Co381  N52     1.976   1_655 S
Co382  N1532   1.976   1_545 S
Co383  N762    1.976   .     S
Co384  N2      1.976   1_655 S
Co384  N1572   1.976   1_545 S
C385   C1555   1.374   1_545 S
C385   C388    1.490   .     S
C386   C1503   1.379   1_545 S
C386   C387    1.481   .     S
C387   C1559   1.375   1_545 S
C388   C1557   1.372   1_545 S
C389   C1515   1.374   1_545 S
C389   C392    1.490   .     S
C390   C1543   1.379   1_545 S
C390   C391    1.481   .     S
C391   C1519   1.375   1_545 S
C392   C1517   1.372   1_545 S
C393   C396    1.490   .     S
C394   C395    1.481   .     S
C397   C5135   1.374   1_554 S
C397   C400    1.490   .     S
C398   C5173   1.379   1_554 S
C398   C399    1.481   .     S
C399   C5139   1.375   1_554 S
C400   C5137   1.372   1_554 S
N401   Co481   1.980   .     S
N401   C403    1.327   .     S
N401   N851    1.357   .     S
N402   C405    1.335   .     S
N402   Co784   1.976   1_455 S
C403   H404    0.950   .     S
C403   C886    1.379   .     S
C405   C485    1.374   .     S
C405   H406    0.950   .     S
C407   C488    1.372   .     S
C407   H408    0.949   .     S
C407   C409    1.372   .     S
C409   C487    1.375   .     S
C409   H410    0.949   .     S
N411   Co482   1.980   .     S
N411   C413    1.327   .     S
N412   C415    1.335   .     S
N412   Co583   1.976   .     S
N412   N842    1.349   .     S
C413   H414    0.950   .     S
C413   C490    1.379   .     S
C415   C889    1.374   .     S
C415   H416    0.950   .     S
C417   C892    1.372   .     S
C417   H418    0.949   .     S
C417   C419    1.372   .     S
C419   C891    1.375   .     S
C419   H420    0.949   .     S
N421   Co483   1.980   .     S
N421   C423    1.327   .     S
N421   N761    1.357   1_455 S
N422   C425    1.335   .     S
N422   N562    1.349   .     S
C423   H424    0.950   .     S
C423   C494    1.379   .     S
C425   C593    1.374   .     S
C425   H426    0.950   .     S
C427   C596    1.372   .     S
C427   H428    0.949   .     S
C427   C429    1.372   .     S
C429   C595    1.375   .     S
C429   H430    0.949   .     S
N431   Co484   1.980   .     S
N431   C433    1.327   .     S
N431   N5371   1.357   1_554 S
N432   C435    1.335   .     S
N432   Co882   1.976   .     S
N432   N2372   1.349   1_455 S
C433   H434    0.950   .     S
C433   C598    1.379   .     S
C435   C2097   1.374   .     S
C435   H436    0.950   .     S
C437   C2100   1.372   .     S
C437   H438    0.949   .     S
C437   C439    1.372   .     S
C439   C2099   1.375   .     S
C439   H440    0.949   .     S
N441   Co483   1.980   .     S
N441   C443    1.327   .     S
N441   N811    1.357   .     S
N442   C445    1.335   .     S
N442   Co582   1.976   .     S
C443   H444    0.950   .     S
C443   C890    1.379   .     S
C445   C489    1.374   .     S
C445   H446    0.950   .     S
C447   C492    1.372   .     S
C447   H448    0.949   .     S
C447   C449    1.372   .     S
C449   C491    1.375   .     S
C449   H450    0.949   .     S
N451   Co484   1.980   .     S
N451   C453    1.327   .     S
N452   C455    1.335   .     S
N452   Co781   1.976   1_455 S
N452   N802    1.349   .     S
C453   H454    0.950   .     S
C453   C486    1.379   .     S
C455   C885    1.374   .     S
C455   H456    0.950   .     S
C457   C888    1.372   .     S
C457   H458    0.949   .     S
C457   C459    1.372   .     S
C459   C887    1.375   .     S
C459   H460    0.949   .     S
N461   Co481   1.980   .     S
N461   C463    1.327   .     S
N461   N521    1.357   .     S
N462   C465    1.335   .     S
N462   N722    1.349   1_455 S
C463   H464    0.950   .     S
C463   C594    1.379   .     S
C465   C493    1.374   .     S
C465   H466    0.950   .     S
C467   C496    1.372   .     S
C467   H468    0.949   .     S
C467   C469    1.372   .     S
C469   C495    1.375   .     S
C469   H470    0.949   .     S
N471   Co482   1.980   .     S
N471   C473    1.327   .     S
N471   N2331   1.357   1_455 S
N472   C475    1.335   .     S
N472   Co884   1.976   .     S
N472   N5332   1.349   1_554 S
C473   H474    0.950   .     S
C473   C2098   1.379   .     S
C475   C597    1.374   .     S
C475   H476    0.950   .     S
C477   C600    1.372   .     S
C477   H478    0.949   .     S
C477   C479    1.372   .     S
C479   C599    1.375   .     S
C479   H480    0.949   .     S
Co481  N822    1.976   .     S
Co481  N552    1.976   .     S
Co482  N742    1.976   1_455 S
Co483  N712    1.976   1_455 S
Co483  N862    1.976   .     S
Co484  N502    1.976   .     S
C485   C488    1.490   .     S
C486   C487    1.481   .     S
C489   C492    1.490   .     S
C490   C491    1.481   .     S
C493   C725    1.374   1_455 S
C493   C496    1.490   .     S
C494   C763    1.379   1_455 S
C494   C495    1.481   .     S
C495   C729    1.375   1_455 S
C496   C727    1.372   1_455 S
C497   C5235   1.374   1_554 S
C497   C775    1.374   1_455 S
C497   C500    1.490   .     S
C498   C733    1.379   1_455 S
C498   C5273   1.379   1_554 S
C498   C499    1.481   .     S
C499   C5239   1.375   1_554 S
C499   C779    1.375   1_455 S
C500   C5237   1.372   1_554 S
C500   C777    1.372   1_455 S
N501   Co581   1.980   .     S
N501   C503    1.327   .     S
N501   N951    1.357   .     S
N502   C505    1.335   .     S
C503   H504    0.950   .     S
C503   C986    1.379   .     S
C505   C585    1.374   .     S
C505   H506    0.950   .     S
C507   C588    1.372   .     S
C507   H508    0.949   .     S
C507   C509    1.372   .     S
C509   C587    1.375   .     S
C509   H510    0.949   .     S
N511   Co582   1.980   .     S
N511   C513    1.327   .     S
N512   C515    1.335   .     S
N512   Co683   1.976   .     S
N512   N942    1.349   .     S
C513   H514    0.950   .     S
C513   C590    1.379   .     S
C515   C989    1.374   .     S
C515   H516    0.950   .     S
C517   C992    1.372   .     S
C517   H518    0.949   .     S
C517   C519    1.372   .     S
C519   C991    1.375   .     S
C519   H520    0.949   .     S
N521   Co583   1.980   .     S
N521   C523    1.327   .     S
N522   C525    1.335   .     S
N522   N662    1.349   .     S
C523   H524    0.950   .     S
C523   C594    1.379   .     S
C525   C693    1.374   .     S
C525   H526    0.950   .     S
C527   C696    1.372   .     S
C527   H528    0.949   .     S
C527   C529    1.372   .     S
C529   C695    1.375   .     S
C529   H530    0.949   .     S
N531   Co584   1.980   .     S
N531   C533    1.327   .     S
N531   N5471   1.357   1_554 S
N532   C535    1.335   .     S
N532   Co982   1.976   .     S
N532   N2072   1.349   .     S
C533   H534    0.950   .     S
C533   C698    1.379   .     S
C535   C2197   1.374   .     S
C535   H536    0.950   .     S
C537   C2200   1.372   .     S
C537   H538    0.949   .     S
C537   C539    1.372   .     S
C539   C2199   1.375   .     S
C539   H540    0.949   .     S
N541   Co583   1.980   .     S
N541   C543    1.327   .     S
N541   N911    1.357   .     S
N542   C545    1.335   .     S
N542   Co682   1.976   .     S
C543   H544    0.950   .     S
C543   C990    1.379   .     S
C545   C589    1.374   .     S
C545   H546    0.950   .     S
C547   C592    1.372   .     S
C547   H548    0.949   .     S
C547   C549    1.372   .     S
C549   C591    1.375   .     S
C549   H550    0.949   .     S
N551   Co584   1.980   .     S
N551   C553    1.327   .     S
N552   C555    1.335   .     S
N552   N902    1.349   .     S
C553   H554    0.950   .     S
C553   C586    1.379   .     S
C555   C985    1.374   .     S
C555   H556    0.950   .     S
C557   C988    1.372   .     S
C557   H558    0.949   .     S
C557   C559    1.372   .     S
C559   C987    1.375   .     S
C559   H560    0.949   .     S
N561   Co581   1.980   .     S
N561   C563    1.327   .     S
N561   N621    1.357   .     S
N562   C565    1.335   .     S
C563   H564    0.950   .     S
C563   C694    1.379   .     S
C565   C593    1.374   .     S
C565   H566    0.950   .     S
C567   C596    1.372   .     S
C567   H568    0.949   .     S
C567   C569    1.372   .     S
C569   C595    1.375   .     S
C569   H570    0.949   .     S
N571   Co582   1.980   .     S
N571   C573    1.327   .     S
N571   N2031   1.357   .     S
N572   C575    1.335   .     S
N572   Co984   1.976   .     S
N572   N5432   1.349   1_554 S
C573   H574    0.950   .     S
C573   C2198   1.379   .     S
C575   C697    1.374   .     S
C575   H576    0.950   .     S
C577   C700    1.372   .     S
C577   H578    0.949   .     S
C577   C579    1.372   .     S
C579   C699    1.375   .     S
C579   H580    0.949   .     S
Co581  N922    1.976   .     S
Co581  N652    1.976   .     S
Co583  N962    1.976   .     S
Co584  N602    1.976   .     S
C585   C588    1.490   .     S
C586   C587    1.481   .     S
C589   C592    1.490   .     S
C590   C591    1.481   .     S
C593   C596    1.490   .     S
C594   C595    1.481   .     S
C597   C5335   1.374   1_554 S
C597   C600    1.490   .     S
C598   C5373   1.379   1_554 S
C598   C599    1.481   .     S
C599   C5339   1.375   1_554 S
C600   C5337   1.372   1_554 S
N601   Co681   1.980   .     S
N601   C603    1.327   .     S
N601   N1051   1.357   .     S
N602   C605    1.335   .     S
C603   H604    0.950   .     S
C603   C1086   1.379   .     S
C605   C685    1.374   .     S
C605   H606    0.950   .     S
C607   C688    1.372   .     S
C607   H608    0.949   .     S
C607   C609    1.372   .     S
C609   C687    1.375   .     S
C609   H610    0.949   .     S
N611   Co682   1.980   .     S
N611   C613    1.327   .     S
N612   C615    1.335   .     S
N612   Co783   1.976   .     S
N612   N1042   1.349   .     S
C613   H614    0.950   .     S
C613   C690    1.379   .     S
C615   C1089   1.374   .     S
C615   H616    0.950   .     S
C617   C1092   1.372   .     S
C617   H618    0.949   .     S
C617   C619    1.372   .     S
C619   C1091   1.375   .     S
C619   H620    0.949   .     S
N621   Co683   1.980   .     S
N621   C623    1.327   .     S
N622   C625    1.335   .     S
N622   N762    1.349   .     S
C623   H624    0.950   .     S
C623   C694    1.379   .     S
C625   C793    1.374   .     S
C625   H626    0.950   .     S
C627   C796    1.372   .     S
C627   H628    0.949   .     S
C627   C629    1.372   .     S
C629   C795    1.375   .     S
C629   H630    0.949   .     S
N631   Co684   1.980   .     S
N631   C633    1.327   .     S
N631   N5571   1.357   1_554 S
N632   C635    1.335   .     S
N632   Co1082  1.976   .     S
N632   N2172   1.349   .     S
C633   H634    0.950   .     S
C633   C798    1.379   .     S
C635   C2297   1.374   .     S
C635   H636    0.950   .     S
C637   C2300   1.372   .     S
C637   H638    0.949   .     S
C637   C639    1.372   .     S
C639   C2299   1.375   .     S
C639   H640    0.949   .     S
N641   Co683   1.980   .     S
N641   C643    1.327   .     S
N641   N1011   1.357   .     S
N642   C645    1.335   .     S
N642   Co782   1.976   .     S
C643   H644    0.950   .     S
C643   C1090   1.379   .     S
C645   C689    1.374   .     S
C645   H646    0.950   .     S
C647   C692    1.372   .     S
C647   H648    0.949   .     S
C647   C649    1.372   .     S
C649   C691    1.375   .     S
C649   H650    0.949   .     S
N651   Co684   1.980   .     S
N651   C653    1.327   .     S
N652   C655    1.335   .     S
N652   N1002   1.349   .     S
C653   H654    0.950   .     S
C653   C686    1.379   .     S
C655   C1085   1.374   .     S
C655   H656    0.950   .     S
C657   C1088   1.372   .     S
C657   H658    0.949   .     S
C657   C659    1.372   .     S
C659   C1087   1.375   .     S
C659   H660    0.949   .     S
N661   Co681   1.980   .     S
N661   C663    1.327   .     S
N661   N721    1.357   .     S
N662   C665    1.335   .     S
C663   H664    0.950   .     S
C663   C794    1.379   .     S
C665   C693    1.374   .     S
C665   H666    0.950   .     S
C667   C696    1.372   .     S
C667   H668    0.949   .     S
C667   C669    1.372   .     S
C669   C695    1.375   .     S
C669   H670    0.949   .     S
N671   Co682   1.980   .     S
N671   C673    1.327   .     S
N671   N2131   1.357   .     S
N672   C675    1.335   .     S
N672   Co1084  1.976   .     S
N672   N5532   1.349   1_554 S
C673   H674    0.950   .     S
C673   C2298   1.379   .     S
C675   C797    1.374   .     S
C675   H676    0.950   .     S
C677   C800    1.372   .     S
C677   H678    0.949   .     S
C677   C679    1.372   .     S
C679   C799    1.375   .     S
C679   H680    0.949   .     S
Co681  N1022   1.976   .     S
Co681  N752    1.976   .     S
Co683  N1062   1.976   .     S
Co684  N702    1.976   .     S
C685   C688    1.490   .     S
C686   C687    1.481   .     S
C689   C692    1.490   .     S
C690   C691    1.481   .     S
C693   C696    1.490   .     S
C694   C695    1.481   .     S
C697   C5435   1.374   1_554 S
C697   C700    1.490   .     S
C698   C5473   1.379   1_554 S
C698   C699    1.481   .     S
C699   C5439   1.375   1_554 S
C700   C5437   1.372   1_554 S
N701   Co781   1.980   .     S
N701   C703    1.327   .     S
N701   N1151   1.357   .     S
N702   C705    1.335   .     S
C703   H704    0.950   .     S
C703   C1186   1.379   .     S
C705   C785    1.374   .     S
C705   H706    0.950   .     S
C707   C788    1.372   .     S
C707   H708    0.949   .     S
C707   C709    1.372   .     S
C709   C787    1.375   .     S
C709   H710    0.949   .     S
N711   Co782   1.980   .     S
N711   C713    1.327   .     S
N712   C715    1.335   .     S
N712   Co483   1.976   1_655 S
N712   N1142   1.349   .     S
C713   H714    0.950   .     S
C713   C790    1.379   .     S
C715   C1189   1.374   .     S
C715   H716    0.950   .     S
C717   C1192   1.372   .     S
C717   H718    0.949   .     S
C717   C719    1.372   .     S
C719   C1191   1.375   .     S
C719   H720    0.949   .     S
N721   Co783   1.980   .     S
N721   C723    1.327   .     S
N722   C725    1.335   .     S
N722   N462    1.349   1_655 S
C723   H724    0.950   .     S
C723   C794    1.379   .     S
C725   C493    1.374   1_655 S
C725   H726    0.950   .     S
C727   C496    1.372   1_655 S
C727   H728    0.949   .     S
C727   C729    1.372   .     S
C729   C495    1.375   1_655 S
C729   H730    0.949   .     S
N731   Co784   1.980   .     S
N731   C733    1.327   .     S
N731   N5271   1.357   1_654 S
N732   C735    1.335   .     S
N732   Co1182  1.976   .     S
N732   N2272   1.349   .     S
C733   H734    0.950   .     S
C733   C498    1.379   1_655 S
C735   C2397   1.374   .     S
C735   H736    0.950   .     S
C737   C2400   1.372   .     S
C737   H738    0.949   .     S
C737   C739    1.372   .     S
C739   C2399   1.375   .     S
C739   H740    0.949   .     S
N741   Co783   1.980   .     S
N741   C743    1.327   .     S
N741   N1111   1.357   .     S
N742   C745    1.335   .     S
N742   Co482   1.976   1_655 S
C743   H744    0.950   .     S
C743   C1190   1.379   .     S
C745   C789    1.374   .     S
C745   H746    0.950   .     S
C747   C792    1.372   .     S
C747   H748    0.949   .     S
C747   C749    1.372   .     S
C749   C791    1.375   .     S
C749   H750    0.949   .     S
N751   Co784   1.980   .     S
N751   C753    1.327   .     S
N752   C755    1.335   .     S
N752   N1102   1.349   .     S
C753   H754    0.950   .     S
C753   C786    1.379   .     S
C755   C1185   1.374   .     S
C755   H756    0.950   .     S
C757   C1188   1.372   .     S
C757   H758    0.949   .     S
C757   C759    1.372   .     S
C759   C1187   1.375   .     S
C759   H760    0.949   .     S
N761   Co781   1.980   .     S
N761   C763    1.327   .     S
N761   N421    1.357   1_655 S
N762   C765    1.335   .     S
C763   H764    0.950   .     S
C763   C494    1.379   1_655 S
C765   C793    1.374   .     S
C765   H766    0.950   .     S
C767   C796    1.372   .     S
C767   H768    0.949   .     S
C767   C769    1.372   .     S
C769   C795    1.375   .     S
C769   H770    0.949   .     S
N771   Co782   1.980   .     S
N771   C773    1.327   .     S
N771   N2231   1.357   .     S
N772   C775    1.335   .     S
N772   Co1184  1.976   .     S
N772   N5232   1.349   1_654 S
C773   H774    0.950   .     S
C773   C2398   1.379   .     S
C775   C497    1.374   1_655 S
C775   H776    0.950   .     S
C777   C500    1.372   1_655 S
C777   H778    0.949   .     S
C777   C779    1.372   .     S
C779   C499    1.375   1_655 S
C779   H780    0.949   .     S
Co781  N1122   1.976   .     S
Co781  N452    1.976   1_655 S
Co783  N1162   1.976   .     S
Co784  N402    1.976   1_655 S
C785   C788    1.490   .     S
C786   C787    1.481   .     S
C789   C792    1.490   .     S
C790   C791    1.481   .     S
C793   C796    1.490   .     S
C794   C795    1.481   .     S
C797   C5535   1.374   1_554 S
C797   C800    1.490   .     S
C798   C5573   1.379   1_554 S
C798   C799    1.481   .     S
C799   C5539   1.375   1_554 S
C800   C5537   1.372   1_554 S
N801   Co881   1.980   .     S
N801   C803    1.327   .     S
N801   N1251   1.357   .     S
N802   C805    1.335   .     S
N802   Co1184  1.976   1_455 S
C803   H804    0.950   .     S
C803   C1286   1.379   .     S
C805   C885    1.374   .     S
C805   H806    0.950   .     S
C807   C888    1.372   .     S
C807   H808    0.949   .     S
C807   C809    1.372   .     S
C809   C887    1.375   .     S
C809   H810    0.949   .     S
N811   Co882   1.980   .     S
N811   C813    1.327   .     S
N812   C815    1.335   .     S
N812   Co983   1.976   .     S
N812   N1242   1.349   .     S
C813   H814    0.950   .     S
C813   C890    1.379   .     S
C815   C1289   1.374   .     S
C815   H816    0.950   .     S
C817   C1292   1.372   .     S
C817   H818    0.949   .     S
C817   C819    1.372   .     S
C819   C1291   1.375   .     S
C819   H820    0.949   .     S
N821   Co883   1.980   .     S
N821   C823    1.327   .     S
N821   N1161   1.357   1_455 S
N822   C825    1.335   .     S
N822   N962    1.349   .     S
C823   H824    0.950   .     S
C823   C894    1.379   .     S
C825   C993    1.374   .     S
C825   H826    0.950   .     S
C827   C996    1.372   .     S
C827   H828    0.949   .     S
C827   C829    1.372   .     S
C829   C995    1.375   .     S
C829   H830    0.949   .     S
N831   Co884   1.980   .     S
N831   C833    1.327   .     S
N831   N5771   1.357   1_554 S
N832   C835    1.335   .     S
N832   Co1282  1.976   .     S
N832   N2772   1.349   1_455 S
C833   H834    0.950   .     S
C833   C998    1.379   .     S
C835   C2497   1.374   .     S
C835   H836    0.950   .     S
C837   C2500   1.372   .     S
C837   H838    0.949   .     S
C837   C839    1.372   .     S
C839   C2499   1.375   .     S
C839   H840    0.949   .     S
N841   Co883   1.980   .     S
N841   C843    1.327   .     S
N841   N1211   1.357   .     S
N842   C845    1.335   .     S
N842   Co982   1.976   .     S
C843   H844    0.950   .     S
C843   C1290   1.379   .     S
C845   C889    1.374   .     S
C845   H846    0.950   .     S
C847   C892    1.372   .     S
C847   H848    0.949   .     S
C847   C849    1.372   .     S
C849   C891    1.375   .     S
C849   H850    0.949   .     S
N851   Co884   1.980   .     S
N851   C853    1.327   .     S
N852   C855    1.335   .     S
N852   Co1181  1.976   1_455 S
N852   N1202   1.349   .     S
C853   H854    0.950   .     S
C853   C886    1.379   .     S
C855   C1285   1.374   .     S
C855   H856    0.950   .     S
C857   C1288   1.372   .     S
C857   H858    0.949   .     S
C857   C859    1.372   .     S
C859   C1287   1.375   .     S
C859   H860    0.949   .     S
N861   Co881   1.980   .     S
N861   C863    1.327   .     S
N861   N921    1.357   .     S
N862   C865    1.335   .     S
N862   N1122   1.349   1_455 S
C863   H864    0.950   .     S
C863   C994    1.379   .     S
C865   C893    1.374   .     S
C865   H866    0.950   .     S
C867   C896    1.372   .     S
C867   H868    0.949   .     S
C867   C869    1.372   .     S
C869   C895    1.375   .     S
C869   H870    0.949   .     S
N871   Co882   1.980   .     S
N871   C873    1.327   .     S
N871   N2731   1.357   1_455 S
N872   C875    1.335   .     S
N872   Co1284  1.976   .     S
N872   N5732   1.349   1_554 S
C873   H874    0.950   .     S
C873   C2498   1.379   .     S
C875   C997    1.374   .     S
C875   H876    0.950   .     S
C877   C1000   1.372   .     S
C877   H878    0.949   .     S
C877   C879    1.372   .     S
C879   C999    1.375   .     S
C879   H880    0.949   .     S
Co881  N1222   1.976   .     S
Co881  N952    1.976   .     S
Co882  N1142   1.976   1_455 S
Co883  N1112   1.976   1_455 S
Co883  N1262   1.976   .     S
Co884  N902    1.976   .     S
C885   C888    1.490   .     S
C886   C887    1.481   .     S
C889   C892    1.490   .     S
C890   C891    1.481   .     S
C893   C1125   1.374   1_455 S
C893   C896    1.490   .     S
C894   C1163   1.379   1_455 S
C894   C895    1.481   .     S
C895   C1129   1.375   1_455 S
C896   C1127   1.372   1_455 S
C897   C5635   1.374   1_554 S
C897   C1175   1.374   1_455 S
C897   C900    1.490   .     S
C898   C1133   1.379   1_455 S
C898   C5673   1.379   1_554 S
C898   C899    1.481   .     S
C899   C5639   1.375   1_554 S
C899   C1179   1.375   1_455 S
C900   C5637   1.372   1_554 S
C900   C1177   1.372   1_455 S
N901   Co981   1.980   .     S
N901   C903    1.327   .     S
N901   N1351   1.357   .     S
N902   C905    1.335   .     S
C903   H904    0.950   .     S
C903   C1386   1.379   .     S
C905   C985    1.374   .     S
C905   H906    0.950   .     S
C907   C988    1.372   .     S
C907   H908    0.949   .     S
C907   C909    1.372   .     S
C909   C987    1.375   .     S
C909   H910    0.949   .     S
N911   Co982   1.980   .     S
N911   C913    1.327   .     S
N912   C915    1.335   .     S
N912   Co1083  1.976   .     S
N912   N1342   1.349   .     S
C913   H914    0.950   .     S
C913   C990    1.379   .     S
C915   C1389   1.374   .     S
C915   H916    0.950   .     S
C917   C1392   1.372   .     S
C917   H918    0.949   .     S
C917   C919    1.372   .     S
C919   C1391   1.375   .     S
C919   H920    0.949   .     S
N921   Co983   1.980   .     S
N921   C923    1.327   .     S
N922   C925    1.335   .     S
N922   N1062   1.349   .     S
C923   H924    0.950   .     S
C923   C994    1.379   .     S
C925   C1093   1.374   .     S
C925   H926    0.950   .     S
C927   C1096   1.372   .     S
C927   H928    0.949   .     S
C927   C929    1.372   .     S
C929   C1095   1.375   .     S
C929   H930    0.949   .     S
N931   Co984   1.980   .     S
N931   C933    1.327   .     S
N931   N5871   1.357   1_554 S
N932   C935    1.335   .     S
N932   Co1382  1.976   .     S
N932   N2472   1.349   .     S
C933   H934    0.950   .     S
C933   C1098   1.379   .     S
C935   C2597   1.374   .     S
C935   H936    0.950   .     S
C937   C2600   1.372   .     S
C937   H938    0.949   .     S
C937   C939    1.372   .     S
C939   C2599   1.375   .     S
C939   H940    0.949   .     S
N941   Co983   1.980   .     S
N941   C943    1.327   .     S
N941   N1311   1.357   .     S
N942   C945    1.335   .     S
N942   Co1082  1.976   .     S
C943   H944    0.950   .     S
C943   C1390   1.379   .     S
C945   C989    1.374   .     S
C945   H946    0.950   .     S
C947   C992    1.372   .     S
C947   H948    0.949   .     S
C947   C949    1.372   .     S
C949   C991    1.375   .     S
C949   H950    0.949   .     S
N951   Co984   1.980   .     S
N951   C953    1.327   .     S
N952   C955    1.335   .     S
N952   N1302   1.349   .     S
C953   H954    0.950   .     S
C953   C986    1.379   .     S
C955   C1385   1.374   .     S
C955   H956    0.950   .     S
C957   C1388   1.372   .     S
C957   H958    0.949   .     S
C957   C959    1.372   .     S
C959   C1387   1.375   .     S
C959   H960    0.949   .     S
N961   Co981   1.980   .     S
N961   C963    1.327   .     S
N961   N1021   1.357   .     S
N962   C965    1.335   .     S
C963   H964    0.950   .     S
C963   C1094   1.379   .     S
C965   C993    1.374   .     S
C965   H966    0.950   .     S
C967   C996    1.372   .     S
C967   H968    0.949   .     S
C967   C969    1.372   .     S
C969   C995    1.375   .     S
C969   H970    0.949   .     S
N971   Co982   1.980   .     S
N971   C973    1.327   .     S
N971   N2431   1.357   .     S
N972   C975    1.335   .     S
N972   Co1384  1.976   .     S
N972   N5832   1.349   1_554 S
C973   H974    0.950   .     S
C973   C2598   1.379   .     S
C975   C1097   1.374   .     S
C975   H976    0.950   .     S
C977   C1100   1.372   .     S
C977   H978    0.949   .     S
C977   C979    1.372   .     S
C979   C1099   1.375   .     S
C979   H980    0.949   .     S
Co981  N1322   1.976   .     S
Co981  N1052   1.976   .     S
Co983  N1362   1.976   .     S
Co984  N1002   1.976   .     S
C985   C988    1.490   .     S
C986   C987    1.481   .     S
C989   C992    1.490   .     S
C990   C991    1.481   .     S
C993   C996    1.490   .     S
C994   C995    1.481   .     S
C997   C5735   1.374   1_554 S
C997   C1000   1.490   .     S
C998   C5773   1.379   1_554 S
C998   C999    1.481   .     S
C999   C5739   1.375   1_554 S
C1000  C5737   1.372   1_554 S
N1001  Co1081  1.980   .     S
N1001  C1003   1.327   .     S
N1001  N1451   1.357   .     S
N1002  C1005   1.335   .     S
C1003  H1004   0.950   .     S
C1003  C1486   1.379   .     S
C1005  C1085   1.374   .     S
C1005  H1006   0.950   .     S
C1007  C1088   1.372   .     S
C1007  H1008   0.949   .     S
C1007  C1009   1.372   .     S
C1009  C1087   1.375   .     S
C1009  H1010   0.949   .     S
N1011  Co1082  1.980   .     S
N1011  C1013   1.327   .     S
N1012  C1015   1.335   .     S
N1012  Co1183  1.976   .     S
N1012  N1442   1.349   .     S
C1013  H1014   0.950   .     S
C1013  C1090   1.379   .     S
C1015  C1489   1.374   .     S
C1015  H1016   0.950   .     S
C1017  C1492   1.372   .     S
C1017  H1018   0.949   .     S
C1017  C1019   1.372   .     S
C1019  C1491   1.375   .     S
C1019  H1020   0.949   .     S
N1021  Co1083  1.980   .     S
N1021  C1023   1.327   .     S
N1022  C1025   1.335   .     S
N1022  N1162   1.349   .     S
C1023  H1024   0.950   .     S
C1023  C1094   1.379   .     S
C1025  C1193   1.374   .     S
C1025  H1026   0.950   .     S
C1027  C1196   1.372   .     S
C1027  H1028   0.949   .     S
C1027  C1029   1.372   .     S
C1029  C1195   1.375   .     S
C1029  H1030   0.949   .     S
N1031  Co1084  1.980   .     S
N1031  C1033   1.327   .     S
N1031  N5971   1.357   1_554 S
N1032  C1035   1.335   .     S
N1032  Co1482  1.976   .     S
N1032  N2572   1.349   .     S
C1033  H1034   0.950   .     S
C1033  C1198   1.379   .     S
C1035  C2697   1.374   .     S
C1035  H1036   0.950   .     S
C1037  C2700   1.372   .     S
C1037  H1038   0.949   .     S
C1037  C1039   1.372   .     S
C1039  C2699   1.375   .     S
C1039  H1040   0.949   .     S
N1041  Co1083  1.980   .     S
N1041  C1043   1.327   .     S
N1041  N1411   1.357   .     S
N1042  C1045   1.335   .     S
N1042  Co1182  1.976   .     S
C1043  H1044   0.950   .     S
C1043  C1490   1.379   .     S
C1045  C1089   1.374   .     S
C1045  H1046   0.950   .     S
C1047  C1092   1.372   .     S
C1047  H1048   0.949   .     S
C1047  C1049   1.372   .     S
C1049  C1091   1.375   .     S
C1049  H1050   0.949   .     S
N1051  Co1084  1.980   .     S
N1051  C1053   1.327   .     S
N1052  C1055   1.335   .     S
N1052  N1402   1.349   .     S
C1053  H1054   0.950   .     S
C1053  C1086   1.379   .     S
C1055  C1485   1.374   .     S
C1055  H1056   0.950   .     S
C1057  C1488   1.372   .     S
C1057  H1058   0.949   .     S
C1057  C1059   1.372   .     S
C1059  C1487   1.375   .     S
C1059  H1060   0.949   .     S
N1061  Co1081  1.980   .     S
N1061  C1063   1.327   .     S
N1061  N1121   1.357   .     S
N1062  C1065   1.335   .     S
C1063  H1064   0.950   .     S
C1063  C1194   1.379   .     S
C1065  C1093   1.374   .     S
C1065  H1066   0.950   .     S
C1067  C1096   1.372   .     S
C1067  H1068   0.949   .     S
C1067  C1069   1.372   .     S
C1069  C1095   1.375   .     S
C1069  H1070   0.949   .     S
N1071  Co1082  1.980   .     S
N1071  C1073   1.327   .     S
N1071  N2531   1.357   .     S
N1072  C1075   1.335   .     S
N1072  Co1484  1.976   .     S
N1072  N5932   1.349   1_554 S
C1073  H1074   0.950   .     S
C1073  C2698   1.379   .     S
C1075  C1197   1.374   .     S
C1075  H1076   0.950   .     S
C1077  C1200   1.372   .     S
C1077  H1078   0.949   .     S
C1077  C1079   1.372   .     S
C1079  C1199   1.375   .     S
C1079  H1080   0.949   .     S
Co1081 N1422   1.976   .     S
Co1081 N1152   1.976   .     S
Co1083 N1462   1.976   .     S
Co1084 N1102   1.976   .     S
C1085  C1088   1.490   .     S
C1086  C1087   1.481   .     S
C1089  C1092   1.490   .     S
C1090  C1091   1.481   .     S
C1093  C1096   1.490   .     S
C1094  C1095   1.481   .     S
C1097  C5835   1.374   1_554 S
C1097  C1100   1.490   .     S
C1098  C5873   1.379   1_554 S
C1098  C1099   1.481   .     S
C1099  C5839   1.375   1_554 S
C1100  C5837   1.372   1_554 S
N1101  Co1181  1.980   .     S
N1101  C1103   1.327   .     S
N1101  N1551   1.357   .     S
N1102  C1105   1.335   .     S
C1103  H1104   0.950   .     S
C1103  C1586   1.379   .     S
C1105  C1185   1.374   .     S
C1105  H1106   0.950   .     S
C1107  C1188   1.372   .     S
C1107  H1108   0.949   .     S
C1107  C1109   1.372   .     S
C1109  C1187   1.375   .     S
C1109  H1110   0.949   .     S
N1111  Co1182  1.980   .     S
N1111  C1113   1.327   .     S
N1112  C1115   1.335   .     S
N1112  Co883   1.976   1_655 S
N1112  N1542   1.349   .     S
C1113  H1114   0.950   .     S
C1113  C1190   1.379   .     S
C1115  C1589   1.374   .     S
C1115  H1116   0.950   .     S
C1117  C1592   1.372   .     S
C1117  H1118   0.949   .     S
C1117  C1119   1.372   .     S
C1119  C1591   1.375   .     S
C1119  H1120   0.949   .     S
N1121  Co1183  1.980   .     S
N1121  C1123   1.327   .     S
N1122  C1125   1.335   .     S
N1122  N862    1.349   1_655 S
C1123  H1124   0.950   .     S
C1123  C1194   1.379   .     S
C1125  C893    1.374   1_655 S
C1125  H1126   0.950   .     S
C1127  C896    1.372   1_655 S
C1127  H1128   0.949   .     S
C1127  C1129   1.372   .     S
C1129  C895    1.375   1_655 S
C1129  H1130   0.949   .     S
N1131  Co1184  1.980   .     S
N1131  C1133   1.327   .     S
N1131  N5671   1.357   1_654 S
N1132  C1135   1.335   .     S
N1132  Co1582  1.976   .     S
N1132  N2672   1.349   .     S
C1133  H1134   0.950   .     S
C1133  C898    1.379   1_655 S
C1135  C2797   1.374   .     S
C1135  H1136   0.950   .     S
C1137  C2800   1.372   .     S
C1137  H1138   0.949   .     S
C1137  C1139   1.372   .     S
C1139  C2799   1.375   .     S
C1139  H1140   0.949   .     S
N1141  Co1183  1.980   .     S
N1141  C1143   1.327   .     S
N1141  N1511   1.357   .     S
N1142  C1145   1.335   .     S
N1142  Co882   1.976   1_655 S
C1143  H1144   0.950   .     S
C1143  C1590   1.379   .     S
C1145  C1189   1.374   .     S
C1145  H1146   0.950   .     S
C1147  C1192   1.372   .     S
C1147  H1148   0.949   .     S
C1147  C1149   1.372   .     S
C1149  C1191   1.375   .     S
C1149  H1150   0.949   .     S
N1151  Co1184  1.980   .     S
N1151  C1153   1.327   .     S
N1152  C1155   1.335   .     S
N1152  N1502   1.349   .     S
C1153  H1154   0.950   .     S
C1153  C1186   1.379   .     S
C1155  C1585   1.374   .     S
C1155  H1156   0.950   .     S
C1157  C1588   1.372   .     S
C1157  H1158   0.949   .     S
C1157  C1159   1.372   .     S
C1159  C1587   1.375   .     S
C1159  H1160   0.949   .     S
N1161  Co1181  1.980   .     S
N1161  C1163   1.327   .     S
N1161  N821    1.357   1_655 S
N1162  C1165   1.335   .     S
C1163  H1164   0.950   .     S
C1163  C894    1.379   1_655 S
C1165  C1193   1.374   .     S
C1165  H1166   0.950   .     S
C1167  C1196   1.372   .     S
C1167  H1168   0.949   .     S
C1167  C1169   1.372   .     S
C1169  C1195   1.375   .     S
C1169  H1170   0.949   .     S
N1171  Co1182  1.980   .     S
N1171  C1173   1.327   .     S
N1171  N2631   1.357   .     S
N1172  C1175   1.335   .     S
N1172  Co1584  1.976   .     S
N1172  N5632   1.349   1_654 S
C1173  H1174   0.950   .     S
C1173  C2798   1.379   .     S
C1175  C897    1.374   1_655 S
C1175  H1176   0.950   .     S
C1177  C900    1.372   1_655 S
C1177  H1178   0.949   .     S
C1177  C1179   1.372   .     S
C1179  C899    1.375   1_655 S
C1179  H1180   0.949   .     S
Co1181 N1522   1.976   .     S
Co1181 N852    1.976   1_655 S
Co1183 N1562   1.976   .     S
Co1184 N802    1.976   1_655 S
C1185  C1188   1.490   .     S
C1186  C1187   1.481   .     S
C1189  C1192   1.490   .     S
C1190  C1191   1.481   .     S
C1193  C1196   1.490   .     S
C1194  C1195   1.481   .     S
C1197  C5935   1.374   1_554 S
C1197  C1200   1.490   .     S
C1198  C5973   1.379   1_554 S
C1198  C1199   1.481   .     S
C1199  C5939   1.375   1_554 S
C1200  C5937   1.372   1_554 S
N1201  Co1281  1.980   .     S
N1201  C1203   1.327   .     S
N1201  N51     1.357   1_565 S
N1202  C1205   1.335   .     S
N1202  Co1584  1.976   1_455 S
C1203  H1204   0.950   .     S
C1203  C86     1.379   1_565 S
C1205  C1285   1.374   .     S
C1205  H1206   0.950   .     S
C1207  C1288   1.372   .     S
C1207  H1208   0.949   .     S
C1207  C1209   1.372   .     S
C1209  C1287   1.375   .     S
C1209  H1210   0.949   .     S
N1211  Co1282  1.980   .     S
N1211  C1213   1.327   .     S
N1212  C1215   1.335   .     S
N1212  Co1383  1.976   .     S
N1212  N42     1.349   1_565 S
C1213  H1214   0.950   .     S
C1213  C1290   1.379   .     S
C1215  C89     1.374   1_565 S
C1215  H1216   0.950   .     S
C1217  C92     1.372   1_565 S
C1217  H1218   0.949   .     S
C1217  C1219   1.372   .     S
C1219  C91     1.375   1_565 S
C1219  H1220   0.949   .     S
N1221  Co1283  1.980   .     S
N1221  C1223   1.327   .     S
N1221  N1561   1.357   1_455 S
N1222  C1225   1.335   .     S
N1222  N1362   1.349   .     S
C1223  H1224   0.950   .     S
C1223  C1294   1.379   .     S
C1225  C1393   1.374   .     S
C1225  H1226   0.950   .     S
C1227  C1396   1.372   .     S
C1227  H1228   0.949   .     S
C1227  C1229   1.372   .     S
C1229  C1395   1.375   .     S
C1229  H1230   0.949   .     S
N1231  Co1284  1.980   .     S
N1231  C1233   1.327   .     S
N1231  N6171   1.357   1_554 S
N1232  C1235   1.335   .     S
N1232  Co82    1.976   1_565 S
N1232  N3172   1.349   1_455 S
C1233  H1234   0.950   .     S
C1233  C1398   1.379   .     S
C1235  C2897   1.374   .     S
C1235  H1236   0.950   .     S
C1237  C2900   1.372   .     S
C1237  H1238   0.949   .     S
C1237  C1239   1.372   .     S
C1239  C2899   1.375   .     S
C1239  H1240   0.949   .     S
N1241  Co1283  1.980   .     S
N1241  C1243   1.327   .     S
N1241  N11     1.357   1_565 S
N1242  C1245   1.335   .     S
N1242  Co1382  1.976   .     S
C1243  H1244   0.950   .     S
C1243  C90     1.379   1_565 S
C1245  C1289   1.374   .     S
C1245  H1246   0.950   .     S
C1247  C1292   1.372   .     S
C1247  H1248   0.949   .     S
C1247  C1249   1.372   .     S
C1249  C1291   1.375   .     S
C1249  H1250   0.949   .     S
N1251  Co1284  1.980   .     S
N1251  C1253   1.327   .     S
N1252  C1255   1.335   .     S
N1252  Co1581  1.976   1_455 S
N1252  N2      1.349   1_565 S
C1253  H1254   0.950   .     S
C1253  C1286   1.379   .     S
C1255  C85     1.374   1_565 S
C1255  H1256   0.950   .     S
C1257  C88     1.372   1_565 S
C1257  H1258   0.949   .     S
C1257  C1259   1.372   .     S
C1259  C87     1.375   1_565 S
C1259  H1260   0.949   .     S
N1261  Co1281  1.980   .     S
N1261  C1263   1.327   .     S
N1261  N1321   1.357   .     S
N1262  C1265   1.335   .     S
N1262  N1522   1.349   1_455 S
C1263  H1264   0.950   .     S
C1263  C1394   1.379   .     S
C1265  C1293   1.374   .     S
C1265  H1266   0.950   .     S
C1267  C1296   1.372   .     S
C1267  H1268   0.949   .     S
C1267  C1269   1.372   .     S
C1269  C1295   1.375   .     S
C1269  H1270   0.949   .     S
N1271  Co1282  1.980   .     S
N1271  C1273   1.327   .     S
N1271  N3131   1.357   1_455 S
N1272  C1275   1.335   .     S
N1272  Co84    1.976   1_565 S
N1272  N6132   1.349   1_554 S
C1273  H1274   0.950   .     S
C1273  C2898   1.379   .     S
C1275  C1397   1.374   .     S
C1275  H1276   0.950   .     S
C1277  C1400   1.372   .     S
C1277  H1278   0.949   .     S
C1277  C1279   1.372   .     S
C1279  C1399   1.375   .     S
C1279  H1280   0.949   .     S
Co1281 N22     1.976   1_565 S
Co1281 N1352   1.976   .     S
Co1282 N1542   1.976   1_455 S
Co1283 N1512   1.976   1_455 S
Co1283 N62     1.976   1_565 S
Co1284 N1302   1.976   .     S
C1285  C1288   1.490   .     S
C1286  C1287   1.481   .     S
C1289  C1292   1.490   .     S
C1290  C1291   1.481   .     S
C1293  C1525   1.374   1_455 S
C1293  C1296   1.490   .     S
C1294  C1563   1.379   1_455 S
C1294  C1295   1.481   .     S
C1295  C1529   1.375   1_455 S
C1296  C1527   1.372   1_455 S
C1297  C6035   1.374   1_554 S
C1297  C1575   1.374   1_455 S
C1297  C1300   1.490   .     S
C1298  C1533   1.379   1_455 S
C1298  C6073   1.379   1_554 S
C1298  C1299   1.481   .     S
C1299  C6039   1.375   1_554 S
C1299  C1579   1.375   1_455 S
C1300  C6037   1.372   1_554 S
C1300  C1577   1.372   1_455 S
N1301  Co1381  1.980   .     S
N1301  C1303   1.327   .     S
N1301  N151    1.357   1_565 S
N1302  C1305   1.335   .     S
C1303  H1304   0.950   .     S
C1303  C186    1.379   1_565 S
C1305  C1385   1.374   .     S
C1305  H1306   0.950   .     S
C1307  C1388   1.372   .     S
C1307  H1308   0.949   .     S
C1307  C1309   1.372   .     S
C1309  C1387   1.375   .     S
C1309  H1310   0.949   .     S
N1311  Co1382  1.980   .     S
N1311  C1313   1.327   .     S
N1312  C1315   1.335   .     S
N1312  Co1483  1.976   .     S
N1312  N142    1.349   1_565 S
C1313  H1314   0.950   .     S
C1313  C1390   1.379   .     S
C1315  C189    1.374   1_565 S
C1315  H1316   0.950   .     S
C1317  C192    1.372   1_565 S
C1317  H1318   0.949   .     S
C1317  C1319   1.372   .     S
C1319  C191    1.375   1_565 S
C1319  H1320   0.949   .     S
N1321  Co1383  1.980   .     S
N1321  C1323   1.327   .     S
N1322  C1325   1.335   .     S
N1322  N1462   1.349   .     S
C1323  H1324   0.950   .     S
C1323  C1394   1.379   .     S
C1325  C1493   1.374   .     S
C1325  H1326   0.950   .     S
C1327  C1496   1.372   .     S
C1327  H1328   0.949   .     S
C1327  C1329   1.372   .     S
C1329  C1495   1.375   .     S
C1329  H1330   0.949   .     S
N1331  Co1384  1.980   .     S
N1331  C1333   1.327   .     S
N1331  N6271   1.357   1_554 S
N1332  C1335   1.335   .     S
N1332  Co182   1.976   1_565 S
N1332  N2872   1.349   .     S
C1333  H1334   0.950   .     S
C1333  C1498   1.379   .     S
C1335  C2997   1.374   .     S
C1335  H1336   0.950   .     S
C1337  C3000   1.372   .     S
C1337  H1338   0.949   .     S
C1337  C1339   1.372   .     S
C1339  C2999   1.375   .     S
C1339  H1340   0.949   .     S
N1341  Co1383  1.980   .     S
N1341  C1343   1.327   .     S
N1341  N111    1.357   1_565 S
N1342  C1345   1.335   .     S
N1342  Co1482  1.976   .     S
C1343  H1344   0.950   .     S
C1343  C190    1.379   1_565 S
C1345  C1389   1.374   .     S
C1345  H1346   0.950   .     S
C1347  C1392   1.372   .     S
C1347  H1348   0.949   .     S
C1347  C1349   1.372   .     S
C1349  C1391   1.375   .     S
C1349  H1350   0.949   .     S
N1351  Co1384  1.980   .     S
N1351  C1353   1.327   .     S
N1352  C1355   1.335   .     S
N1352  N102    1.349   1_565 S
C1353  H1354   0.950   .     S
C1353  C1386   1.379   .     S
C1355  C185    1.374   1_565 S
C1355  H1356   0.950   .     S
C1357  C188    1.372   1_565 S
C1357  H1358   0.949   .     S
C1357  C1359   1.372   .     S
C1359  C187    1.375   1_565 S
C1359  H1360   0.949   .     S
N1361  Co1381  1.980   .     S
N1361  C1363   1.327   .     S
N1361  N1421   1.357   .     S
N1362  C1365   1.335   .     S
C1363  H1364   0.950   .     S
C1363  C1494   1.379   .     S
C1365  C1393   1.374   .     S
C1365  H1366   0.950   .     S
C1367  C1396   1.372   .     S
C1367  H1368   0.949   .     S
C1367  C1369   1.372   .     S
C1369  C1395   1.375   .     S
C1369  H1370   0.949   .     S
N1371  Co1382  1.980   .     S
N1371  C1373   1.327   .     S
N1371  N2831   1.357   .     S
N1372  C1375   1.335   .     S
N1372  Co184   1.976   1_565 S
N1372  N6232   1.349   1_554 S
C1373  H1374   0.950   .     S
C1373  C2998   1.379   .     S
C1375  C1497   1.374   .     S
C1375  H1376   0.950   .     S
C1377  C1500   1.372   .     S
C1377  H1378   0.949   .     S
C1377  C1379   1.372   .     S
C1379  C1499   1.375   .     S
C1379  H1380   0.949   .     S
Co1381 N122    1.976   1_565 S
Co1381 N1452   1.976   .     S
Co1383 N162    1.976   1_565 S
Co1384 N1402   1.976   .     S
C1385  C1388   1.490   .     S
C1386  C1387   1.481   .     S
C1389  C1392   1.490   .     S
C1390  C1391   1.481   .     S
C1393  C1396   1.490   .     S
C1394  C1395   1.481   .     S
C1397  C6135   1.374   1_554 S
C1397  C1400   1.490   .     S
C1398  C6173   1.379   1_554 S
C1398  C1399   1.481   .     S
C1399  C6139   1.375   1_554 S
C1400  C6137   1.372   1_554 S
N1401  Co1481  1.980   .     S
N1401  C1403   1.327   .     S
N1401  N251    1.357   1_565 S
N1402  C1405   1.335   .     S
C1403  H1404   0.950   .     S
C1403  C286    1.379   1_565 S
C1405  C1485   1.374   .     S
C1405  H1406   0.950   .     S
C1407  C1488   1.372   .     S
C1407  H1408   0.949   .     S
C1407  C1409   1.372   .     S
C1409  C1487   1.375   .     S
C1409  H1410   0.949   .     S
N1411  Co1482  1.980   .     S
N1411  C1413   1.327   .     S
N1412  C1415   1.335   .     S
N1412  Co1583  1.976   .     S
N1412  N242    1.349   1_565 S
C1413  H1414   0.950   .     S
C1413  C1490   1.379   .     S
C1415  C289    1.374   1_565 S
C1415  H1416   0.950   .     S
C1417  C292    1.372   1_565 S
C1417  H1418   0.949   .     S
C1417  C1419   1.372   .     S
C1419  C291    1.375   1_565 S
C1419  H1420   0.949   .     S
N1421  Co1483  1.980   .     S
N1421  C1423   1.327   .     S
N1422  C1425   1.335   .     S
N1422  N1562   1.349   .     S
C1423  H1424   0.950   .     S
C1423  C1494   1.379   .     S
C1425  C1593   1.374   .     S
C1425  H1426   0.950   .     S
C1427  C1596   1.372   .     S
C1427  H1428   0.949   .     S
C1427  C1429   1.372   .     S
C1429  C1595   1.375   .     S
C1429  H1430   0.949   .     S
N1431  Co1484  1.980   .     S
N1431  C1433   1.327   .     S
N1431  N6371   1.357   1_554 S
N1432  C1435   1.335   .     S
N1432  Co282   1.976   1_565 S
N1432  N2972   1.349   .     S
C1433  H1434   0.950   .     S
C1433  C1598   1.379   .     S
C1435  C3097   1.374   .     S
C1435  H1436   0.950   .     S
C1437  C3100   1.372   .     S
C1437  H1438   0.949   .     S
C1437  C1439   1.372   .     S
C1439  C3099   1.375   .     S
C1439  H1440   0.949   .     S
N1441  Co1483  1.980   .     S
N1441  C1443   1.327   .     S
N1441  N211    1.357   1_565 S
N1442  C1445   1.335   .     S
N1442  Co1582  1.976   .     S
C1443  H1444   0.950   .     S
C1443  C290    1.379   1_565 S
C1445  C1489   1.374   .     S
C1445  H1446   0.950   .     S
C1447  C1492   1.372   .     S
C1447  H1448   0.949   .     S
C1447  C1449   1.372   .     S
C1449  C1491   1.375   .     S
C1449  H1450   0.949   .     S
N1451  Co1484  1.980   .     S
N1451  C1453   1.327   .     S
N1452  C1455   1.335   .     S
N1452  N202    1.349   1_565 S
C1453  H1454   0.950   .     S
C1453  C1486   1.379   .     S
C1455  C285    1.374   1_565 S
C1455  H1456   0.950   .     S
C1457  C288    1.372   1_565 S
C1457  H1458   0.949   .     S
C1457  C1459   1.372   .     S
C1459  C287    1.375   1_565 S
C1459  H1460   0.949   .     S
N1461  Co1481  1.980   .     S
N1461  C1463   1.327   .     S
N1461  N1521   1.357   .     S
N1462  C1465   1.335   .     S
C1463  H1464   0.950   .     S
C1463  C1594   1.379   .     S
C1465  C1493   1.374   .     S
C1465  H1466   0.950   .     S
C1467  C1496   1.372   .     S
C1467  H1468   0.949   .     S
C1467  C1469   1.372   .     S
C1469  C1495   1.375   .     S
C1469  H1470   0.949   .     S
N1471  Co1482  1.980   .     S
N1471  C1473   1.327   .     S
N1471  N2931   1.357   .     S
N1472  C1475   1.335   .     S
N1472  Co284   1.976   1_565 S
N1472  N6332   1.349   1_554 S
C1473  H1474   0.950   .     S
C1473  C3098   1.379   .     S
C1475  C1597   1.374   .     S
C1475  H1476   0.950   .     S
C1477  C1600   1.372   .     S
C1477  H1478   0.949   .     S
C1477  C1479   1.372   .     S
C1479  C1599   1.375   .     S
C1479  H1480   0.949   .     S
Co1481 N222    1.976   1_565 S
Co1481 N1552   1.976   .     S
Co1483 N262    1.976   1_565 S
Co1484 N1502   1.976   .     S
C1485  C1488   1.490   .     S
C1486  C1487   1.481   .     S
C1489  C1492   1.490   .     S
C1490  C1491   1.481   .     S
C1493  C1496   1.490   .     S
C1494  C1495   1.481   .     S
C1497  C6235   1.374   1_554 S
C1497  C1500   1.490   .     S
C1498  C6273   1.379   1_554 S
C1498  C1499   1.481   .     S
C1499  C6239   1.375   1_554 S
C1500  C6237   1.372   1_554 S
N1501  Co1581  1.980   .     S
N1501  C1503   1.327   .     S
N1501  N351    1.357   1_565 S
N1502  C1505   1.335   .     S
C1503  H1504   0.950   .     S
C1503  C386    1.379   1_565 S
C1505  C1585   1.374   .     S
C1505  H1506   0.950   .     S
C1507  C1588   1.372   .     S
C1507  H1508   0.949   .     S
C1507  C1509   1.372   .     S
C1509  C1587   1.375   .     S
C1509  H1510   0.949   .     S
N1511  Co1582  1.980   .     S
N1511  C1513   1.327   .     S
N1512  C1515   1.335   .     S
N1512  Co1283  1.976   1_655 S
N1512  N342    1.349   1_565 S
C1513  H1514   0.950   .     S
C1513  C1590   1.379   .     S
C1515  C389    1.374   1_565 S
C1515  H1516   0.950   .     S
C1517  C392    1.372   1_565 S
C1517  H1518   0.949   .     S
C1517  C1519   1.372   .     S
C1519  C391    1.375   1_565 S
C1519  H1520   0.949   .     S
N1521  Co1583  1.980   .     S
N1521  C1523   1.327   .     S
N1522  C1525   1.335   .     S
N1522  N1262   1.349   1_655 S
C1523  H1524   0.950   .     S
C1523  C1594   1.379   .     S
C1525  C1293   1.374   1_655 S
C1525  H1526   0.950   .     S
C1527  C1296   1.372   1_655 S
C1527  H1528   0.949   .     S
C1527  C1529   1.372   .     S
C1529  C1295   1.375   1_655 S
C1529  H1530   0.949   .     S
N1531  Co1584  1.980   .     S
N1531  C1533   1.327   .     S
N1531  N6071   1.357   1_654 S
N1532  C1535   1.335   .     S
N1532  Co382   1.976   1_565 S
N1532  N3072   1.349   .     S
C1533  H1534   0.950   .     S
C1533  C1298   1.379   1_655 S
C1535  C3197   1.374   .     S
C1535  H1536   0.950   .     S
C1537  C3200   1.372   .     S
C1537  H1538   0.949   .     S
C1537  C1539   1.372   .     S
C1539  C3199   1.375   .     S
C1539  H1540   0.949   .     S
N1541  Co1583  1.980   .     S
N1541  C1543   1.327   .     S
N1541  N311    1.357   1_565 S
N1542  C1545   1.335   .     S
N1542  Co1282  1.976   1_655 S
C1543  H1544   0.950   .     S
C1543  C390    1.379   1_565 S
C1545  C1589   1.374   .     S
C1545  H1546   0.950   .     S
C1547  C1592   1.372   .     S
C1547  H1548   0.949   .     S
C1547  C1549   1.372   .     S
C1549  C1591   1.375   .     S
C1549  H1550   0.949   .     S
N1551  Co1584  1.980   .     S
N1551  C1553   1.327   .     S
N1552  C1555   1.335   .     S
N1552  N302    1.349   1_565 S
C1553  H1554   0.950   .     S
C1553  C1586   1.379   .     S
C1555  C385    1.374   1_565 S
C1555  H1556   0.950   .     S
C1557  C388    1.372   1_565 S
C1557  H1558   0.949   .     S
C1557  C1559   1.372   .     S
C1559  C387    1.375   1_565 S
C1559  H1560   0.949   .     S
N1561  Co1581  1.980   .     S
N1561  C1563   1.327   .     S
N1561  N1221   1.357   1_655 S
N1562  C1565   1.335   .     S
C1563  H1564   0.950   .     S
C1563  C1294   1.379   1_655 S
C1565  C1593   1.374   .     S
C1565  H1566   0.950   .     S
C1567  C1596   1.372   .     S
C1567  H1568   0.949   .     S
C1567  C1569   1.372   .     S
C1569  C1595   1.375   .     S
C1569  H1570   0.949   .     S
N1571  Co1582  1.980   .     S
N1571  C1573   1.327   .     S
N1571  N3031   1.357   .     S
N1572  C1575   1.335   .     S
N1572  Co384   1.976   1_565 S
N1572  N6032   1.349   1_654 S
C1573  H1574   0.950   .     S
C1573  C3198   1.379   .     S
C1575  C1297   1.374   1_655 S
C1575  H1576   0.950   .     S
C1577  C1300   1.372   1_655 S
C1577  H1578   0.949   .     S
C1577  C1579   1.372   .     S
C1579  C1299   1.375   1_655 S
C1579  H1580   0.949   .     S
Co1581 N322    1.976   1_565 S
Co1581 N1252   1.976   1_655 S
Co1583 N362    1.976   1_565 S
Co1584 N1202   1.976   1_655 S
C1585  C1588   1.490   .     S
C1586  C1587   1.481   .     S
C1589  C1592   1.490   .     S
C1590  C1591   1.481   .     S
C1593  C1596   1.490   .     S
C1594  C1595   1.481   .     S
C1597  C6335   1.374   1_554 S
C1597  C1600   1.490   .     S
C1598  C6373   1.379   1_554 S
C1598  C1599   1.481   .     S
C1599  C6339   1.375   1_554 S
C1600  C6337   1.372   1_554 S
N1601  Co1681  1.980   .     S
N1601  C1603   1.327   .     S
N1601  N2051   1.357   .     S
N1602  C1605   1.335   .     S
N1602  Co1984  1.976   1_455 S
N1602  N2852   1.349   1_545 S
C1603  H1604   0.950   .     S
C1603  C2086   1.379   .     S
C1605  C1685   1.374   .     S
C1605  H1606   0.950   .     S
C1607  C1688   1.372   .     S
C1607  H1608   0.949   .     S
C1607  C1609   1.372   .     S
C1609  C1687   1.375   .     S
C1609  H1610   0.949   .     S
N1611  Co1682  1.980   .     S
N1611  C1613   1.327   .     S
N1611  N2841   1.357   1_545 S
N1612  C1615   1.335   .     S
N1612  Co1783  1.976   .     S
N1612  N2042   1.349   .     S
C1613  H1614   0.950   .     S
C1613  C1690   1.379   .     S
C1615  C2089   1.374   .     S
C1615  H1616   0.950   .     S
C1617  C2092   1.372   .     S
C1617  H1618   0.949   .     S
C1617  C1619   1.372   .     S
C1619  C2091   1.375   .     S
C1619  H1620   0.949   .     S
N1621  Co1683  1.980   .     S
N1621  C1623   1.327   .     S
N1621  N1961   1.357   1_455 S
N1622  C1625   1.335   .     S
N1622  Co2881  1.976   1_545 S
N1622  N1762   1.349   .     S
C1623  H1624   0.950   .     S
C1623  C1694   1.379   .     S
C1625  C1793   1.374   .     S
C1625  H1626   0.950   .     S
C1627  C1796   1.372   .     S
C1627  H1628   0.949   .     S
C1627  C1629   1.372   .     S
C1629  C1795   1.375   .     S
C1629  H1630   0.949   .     S
N1631  Co1684  1.980   .     S
N1631  C1633   1.327   .     S
N1632  C1635   1.335   .     S
N1632  Co2082  1.976   .     S
N1632  N3572   1.349   1_455 S
C1633  H1634   0.950   .     S
C1633  C1798   1.379   .     S
C1635  C3297   1.374   .     S
C1635  H1636   0.950   .     S
C1637  C3300   1.372   .     S
C1637  H1638   0.949   .     S
C1637  C1639   1.372   .     S
C1639  C3299   1.375   .     S
C1639  H1640   0.949   .     S
N1641  Co1683  1.980   .     S
N1641  C1643   1.327   .     S
N1641  N2011   1.357   .     S
N1642  C1645   1.335   .     S
N1642  Co1782  1.976   .     S
N1642  N2812   1.349   1_545 S
C1643  H1644   0.950   .     S
C1643  C2090   1.379   .     S
C1645  C1689   1.374   .     S
C1645  H1646   0.950   .     S
C1647  C1692   1.372   .     S
C1647  H1648   0.949   .     S
C1647  C1649   1.372   .     S
C1649  C1691   1.375   .     S
C1649  H1650   0.949   .     S
N1651  Co1684  1.980   .     S
N1651  C1653   1.327   .     S
N1651  N2801   1.357   1_545 S
N1652  C1655   1.335   .     S
N1652  Co1981  1.976   1_455 S
N1652  N2002   1.349   .     S
C1653  H1654   0.950   .     S
C1653  C1686   1.379   .     S
C1655  C2085   1.374   .     S
C1655  H1656   0.950   .     S
C1657  C2088   1.372   .     S
C1657  H1658   0.949   .     S
C1657  C1659   1.372   .     S
C1659  C2087   1.375   .     S
C1659  H1660   0.949   .     S
N1661  Co1681  1.980   .     S
N1661  C1663   1.327   .     S
N1661  N1721   1.357   .     S
N1662  C1665   1.335   .     S
N1662  Co2883  1.976   1_545 S
N1662  N1922   1.349   1_455 S
C1663  H1664   0.950   .     S
C1663  C1794   1.379   .     S
C1665  C1693   1.374   .     S
C1665  H1666   0.950   .     S
C1667  C1696   1.372   .     S
C1667  H1668   0.949   .     S
C1667  C1669   1.372   .     S
C1669  C1695   1.375   .     S
C1669  H1670   0.949   .     S
N1671  Co1682  1.980   .     S
N1671  C1673   1.327   .     S
N1671  N3531   1.357   1_455 S
N1672  C1675   1.335   .     S
N1672  Co2084  1.976   .     S
C1673  H1674   0.950   .     S
C1673  C3298   1.379   .     S
C1675  C1797   1.374   .     S
C1675  H1676   0.950   .     S
C1677  C1800   1.372   .     S
C1677  H1678   0.949   .     S
C1677  C1679   1.372   .     S
C1679  C1799   1.375   .     S
C1679  H1680   0.949   .     S
Co1681 N2022   1.976   .     S
Co1681 N1752   1.976   .     S
Co1682 N2832   1.976   1_545 S
Co1682 N1942   1.976   1_455 S
Co1683 N1912   1.976   1_455 S
Co1683 N2062   1.976   .     S
Co1684 N1702   1.976   .     S
Co1684 N2872   1.976   1_545 S
C1685  C2855   1.374   1_545 S
C1685  C1688   1.490   .     S
C1686  C2803   1.379   1_545 S
C1686  C1687   1.481   .     S
C1687  C2859   1.375   1_545 S
C1688  C2857   1.372   1_545 S
C1689  C2815   1.374   1_545 S
C1689  C1692   1.490   .     S
C1690  C2843   1.379   1_545 S
C1690  C1691   1.481   .     S
C1691  C2819   1.375   1_545 S
C1692  C2817   1.372   1_545 S
C1693  C1925   1.374   1_455 S
C1693  C1696   1.490   .     S
C1694  C1963   1.379   1_455 S
C1694  C1695   1.481   .     S
C1695  C1929   1.375   1_455 S
C1696  C1927   1.372   1_455 S
C1697  C1975   1.374   1_455 S
C1697  C1700   1.490   .     S
C1698  C1933   1.379   1_455 S
C1698  C1699   1.481   .     S
C1699  C1979   1.375   1_455 S
C1700  C1977   1.372   1_455 S
N1701  Co1781  1.980   .     S
N1701  C1703   1.327   .     S
N1701  N2151   1.357   .     S
N1702  C1705   1.335   .     S
N1702  N2952   1.349   1_545 S
C1703  H1704   0.950   .     S
C1703  C2186   1.379   .     S
C1705  C1785   1.374   .     S
C1705  H1706   0.950   .     S
C1707  C1788   1.372   .     S
C1707  H1708   0.949   .     S
C1707  C1709   1.372   .     S
C1709  C1787   1.375   .     S
C1709  H1710   0.949   .     S
N1711  Co1782  1.980   .     S
N1711  C1713   1.327   .     S
N1711  N2941   1.357   1_545 S
N1712  C1715   1.335   .     S
N1712  Co1883  1.976   .     S
N1712  N2142   1.349   .     S
C1713  H1714   0.950   .     S
C1713  C1790   1.379   .     S
C1715  C2189   1.374   .     S
C1715  H1716   0.950   .     S
C1717  C2192   1.372   .     S
C1717  H1718   0.949   .     S
C1717  C1719   1.372   .     S
C1719  C2191   1.375   .     S
C1719  H1720   0.949   .     S
N1721  Co1783  1.980   .     S
N1721  C1723   1.327   .     S
N1722  C1725   1.335   .     S
N1722  Co2981  1.976   1_545 S
N1722  N1862   1.349   .     S
C1723  H1724   0.950   .     S
C1723  C1794   1.379   .     S
C1725  C1893   1.374   .     S
C1725  H1726   0.950   .     S
C1727  C1896   1.372   .     S
C1727  H1728   0.949   .     S
C1727  C1729   1.372   .     S
C1729  C1895   1.375   .     S
C1729  H1730   0.949   .     S
N1731  Co1784  1.980   .     S
N1731  C1733   1.327   .     S
N1732  C1735   1.335   .     S
N1732  Co2182  1.976   .     S
N1732  N3272   1.349   .     S
C1733  H1734   0.950   .     S
C1733  C1898   1.379   .     S
C1735  C3397   1.374   .     S
C1735  H1736   0.950   .     S
C1737  C3400   1.372   .     S
C1737  H1738   0.949   .     S
C1737  C1739   1.372   .     S
C1739  C3399   1.375   .     S
C1739  H1740   0.949   .     S
N1741  Co1783  1.980   .     S
N1741  C1743   1.327   .     S
N1741  N2111   1.357   .     S
N1742  C1745   1.335   .     S
N1742  Co1882  1.976   .     S
N1742  N2912   1.349   1_545 S
C1743  H1744   0.950   .     S
C1743  C2190   1.379   .     S
C1745  C1789   1.374   .     S
C1745  H1746   0.950   .     S
C1747  C1792   1.372   .     S
C1747  H1748   0.949   .     S
C1747  C1749   1.372   .     S
C1749  C1791   1.375   .     S
C1749  H1750   0.949   .     S
N1751  Co1784  1.980   .     S
N1751  C1753   1.327   .     S
N1751  N2901   1.357   1_545 S
N1752  C1755   1.335   .     S
N1752  N2102   1.349   .     S
C1753  H1754   0.950   .     S
C1753  C1786   1.379   .     S
C1755  C2185   1.374   .     S
C1755  H1756   0.950   .     S
C1757  C2188   1.372   .     S
C1757  H1758   0.949   .     S
C1757  C1759   1.372   .     S
C1759  C2187   1.375   .     S
C1759  H1760   0.949   .     S
N1761  Co1781  1.980   .     S
N1761  C1763   1.327   .     S
N1761  N1821   1.357   .     S
N1762  C1765   1.335   .     S
N1762  Co2983  1.976   1_545 S
C1763  H1764   0.950   .     S
C1763  C1894   1.379   .     S
C1765  C1793   1.374   .     S
C1765  H1766   0.950   .     S
C1767  C1796   1.372   .     S
C1767  H1768   0.949   .     S
C1767  C1769   1.372   .     S
C1769  C1795   1.375   .     S
C1769  H1770   0.949   .     S
N1771  Co1782  1.980   .     S
N1771  C1773   1.327   .     S
N1771  N3231   1.357   .     S
N1772  C1775   1.335   .     S
N1772  Co2184  1.976   .     S
C1773  H1774   0.950   .     S
C1773  C3398   1.379   .     S
C1775  C1897   1.374   .     S
C1775  H1776   0.950   .     S
C1777  C1900   1.372   .     S
C1777  H1778   0.949   .     S
C1777  C1779   1.372   .     S
C1779  C1899   1.375   .     S
C1779  H1780   0.949   .     S
Co1781 N2122   1.976   .     S
Co1781 N1852   1.976   .     S
Co1782 N2932   1.976   1_545 S
Co1783 N2162   1.976   .     S
Co1784 N1802   1.976   .     S
Co1784 N2972   1.976   1_545 S
C1785  C2955   1.374   1_545 S
C1785  C1788   1.490   .     S
C1786  C2903   1.379   1_545 S
C1786  C1787   1.481   .     S
C1787  C2959   1.375   1_545 S
C1788  C2957   1.372   1_545 S
C1789  C2915   1.374   1_545 S
C1789  C1792   1.490   .     S
C1790  C2943   1.379   1_545 S
C1790  C1791   1.481   .     S
C1791  C2919   1.375   1_545 S
C1792  C2917   1.372   1_545 S
C1793  C1796   1.490   .     S
C1794  C1795   1.481   .     S
C1797  C1800   1.490   .     S
C1798  C1799   1.481   .     S
N1801  Co1881  1.980   .     S
N1801  C1803   1.327   .     S
N1801  N2251   1.357   .     S
N1802  C1805   1.335   .     S
N1802  N3052   1.349   1_545 S
C1803  H1804   0.950   .     S
C1803  C2286   1.379   .     S
C1805  C1885   1.374   .     S
C1805  H1806   0.950   .     S
C1807  C1888   1.372   .     S
C1807  H1808   0.949   .     S
C1807  C1809   1.372   .     S
C1809  C1887   1.375   .     S
C1809  H1810   0.949   .     S
N1811  Co1882  1.980   .     S
N1811  C1813   1.327   .     S
N1811  N3041   1.357   1_545 S
N1812  C1815   1.335   .     S
N1812  Co1983  1.976   .     S
N1812  N2242   1.349   .     S
C1813  H1814   0.950   .     S
C1813  C1890   1.379   .     S
C1815  C2289   1.374   .     S
C1815  H1816   0.950   .     S
C1817  C2292   1.372   .     S
C1817  H1818   0.949   .     S
C1817  C1819   1.372   .     S
C1819  C2291   1.375   .     S
C1819  H1820   0.949   .     S
N1821  Co1883  1.980   .     S
N1821  C1823   1.327   .     S
N1822  C1825   1.335   .     S
N1822  Co3081  1.976   1_545 S
N1822  N1962   1.349   .     S
C1823  H1824   0.950   .     S
C1823  C1894   1.379   .     S
C1825  C1993   1.374   .     S
C1825  H1826   0.950   .     S
C1827  C1996   1.372   .     S
C1827  H1828   0.949   .     S
C1827  C1829   1.372   .     S
C1829  C1995   1.375   .     S
C1829  H1830   0.949   .     S
N1831  Co1884  1.980   .     S
N1831  C1833   1.327   .     S
N1832  C1835   1.335   .     S
N1832  Co2282  1.976   .     S
N1832  N3372   1.349   .     S
C1833  H1834   0.950   .     S
C1833  C1998   1.379   .     S
C1835  C3497   1.374   .     S
C1835  H1836   0.950   .     S
C1837  C3500   1.372   .     S
C1837  H1838   0.949   .     S
C1837  C1839   1.372   .     S
C1839  C3499   1.375   .     S
C1839  H1840   0.949   .     S
N1841  Co1883  1.980   .     S
N1841  C1843   1.327   .     S
N1841  N2211   1.357   .     S
N1842  C1845   1.335   .     S
N1842  Co1982  1.976   .     S
N1842  N3012   1.349   1_545 S
C1843  H1844   0.950   .     S
C1843  C2290   1.379   .     S
C1845  C1889   1.374   .     S
C1845  H1846   0.950   .     S
C1847  C1892   1.372   .     S
C1847  H1848   0.949   .     S
C1847  C1849   1.372   .     S
C1849  C1891   1.375   .     S
C1849  H1850   0.949   .     S
N1851  Co1884  1.980   .     S
N1851  C1853   1.327   .     S
N1851  N3001   1.357   1_545 S
N1852  C1855   1.335   .     S
N1852  N2202   1.349   .     S
C1853  H1854   0.950   .     S
C1853  C1886   1.379   .     S
C1855  C2285   1.374   .     S
C1855  H1856   0.950   .     S
C1857  C2288   1.372   .     S
C1857  H1858   0.949   .     S
C1857  C1859   1.372   .     S
C1859  C2287   1.375   .     S
C1859  H1860   0.949   .     S
N1861  Co1881  1.980   .     S
N1861  C1863   1.327   .     S
N1861  N1921   1.357   .     S
N1862  C1865   1.335   .     S
N1862  Co3083  1.976   1_545 S
C1863  H1864   0.950   .     S
C1863  C1994   1.379   .     S
C1865  C1893   1.374   .     S
C1865  H1866   0.950   .     S
C1867  C1896   1.372   .     S
C1867  H1868   0.949   .     S
C1867  C1869   1.372   .     S
C1869  C1895   1.375   .     S
C1869  H1870   0.949   .     S
N1871  Co1882  1.980   .     S
N1871  C1873   1.327   .     S
N1871  N3331   1.357   .     S
N1872  C1875   1.335   .     S
N1872  Co2284  1.976   .     S
C1873  H1874   0.950   .     S
C1873  C3498   1.379   .     S
C1875  C1997   1.374   .     S
C1875  H1876   0.950   .     S
C1877  C2000   1.372   .     S
C1877  H1878   0.949   .     S
C1877  C1879   1.372   .     S
C1879  C1999   1.375   .     S
C1879  H1880   0.949   .     S
Co1881 N2222   1.976   .     S
Co1881 N1952   1.976   .     S
Co1882 N3032   1.976   1_545 S
Co1883 N2262   1.976   .     S
Co1884 N1902   1.976   .     S
Co1884 N3072   1.976   1_545 S
C1885  C3055   1.374   1_545 S
C1885  C1888   1.490   .     S
C1886  C3003   1.379   1_545 S
C1886  C1887   1.481   .     S
C1887  C3059   1.375   1_545 S
C1888  C3057   1.372   1_545 S
C1889  C3015   1.374   1_545 S
C1889  C1892   1.490   .     S
C1890  C3043   1.379   1_545 S
C1890  C1891   1.481   .     S
C1891  C3019   1.375   1_545 S
C1892  C3017   1.372   1_545 S
C1893  C1896   1.490   .     S
C1894  C1895   1.481   .     S
C1897  C1900   1.490   .     S
C1898  C1899   1.481   .     S
N1901  Co1981  1.980   .     S
N1901  C1903   1.327   .     S
N1901  N2351   1.357   .     S
N1902  C1905   1.335   .     S
N1902  N3152   1.349   1_545 S
C1903  H1904   0.950   .     S
C1903  C2386   1.379   .     S
C1905  C1985   1.374   .     S
C1905  H1906   0.950   .     S
C1907  C1988   1.372   .     S
C1907  H1908   0.949   .     S
C1907  C1909   1.372   .     S
C1909  C1987   1.375   .     S
C1909  H1910   0.949   .     S
N1911  Co1982  1.980   .     S
N1911  C1913   1.327   .     S
N1911  N3141   1.357   1_545 S
N1912  C1915   1.335   .     S
N1912  Co1683  1.976   1_655 S
N1912  N2342   1.349   .     S
C1913  H1914   0.950   .     S
C1913  C1990   1.379   .     S
C1915  C2389   1.374   .     S
C1915  H1916   0.950   .     S
C1917  C2392   1.372   .     S
C1917  H1918   0.949   .     S
C1917  C1919   1.372   .     S
C1919  C2391   1.375   .     S
C1919  H1920   0.949   .     S
N1921  Co1983  1.980   .     S
N1921  C1923   1.327   .     S
N1922  C1925   1.335   .     S
N1922  Co3181  1.976   1_545 S
N1922  N1662   1.349   1_655 S
C1923  H1924   0.950   .     S
C1923  C1994   1.379   .     S
C1925  C1693   1.374   1_655 S
C1925  H1926   0.950   .     S
C1927  C1696   1.372   1_655 S
C1927  H1928   0.949   .     S
C1927  C1929   1.372   .     S
C1929  C1695   1.375   1_655 S
C1929  H1930   0.949   .     S
N1931  Co1984  1.980   .     S
N1931  C1933   1.327   .     S
N1931  N71     1.357   1_655 S
N1932  C1935   1.335   .     S
N1932  Co2382  1.976   .     S
N1932  N3472   1.349   .     S
C1933  H1934   0.950   .     S
C1933  C1698   1.379   1_655 S
C1935  C3597   1.374   .     S
C1935  H1936   0.950   .     S
C1937  C3600   1.372   .     S
C1937  H1938   0.949   .     S
C1937  C1939   1.372   .     S
C1939  C3599   1.375   .     S
C1939  H1940   0.949   .     S
N1941  Co1983  1.980   .     S
N1941  C1943   1.327   .     S
N1941  N2311   1.357   .     S
N1942  C1945   1.335   .     S
N1942  Co1682  1.976   1_655 S
N1942  N3112   1.349   1_545 S
C1943  H1944   0.950   .     S
C1943  C2390   1.379   .     S
C1945  C1989   1.374   .     S
C1945  H1946   0.950   .     S
C1947  C1992   1.372   .     S
C1947  H1948   0.949   .     S
C1947  C1949   1.372   .     S
C1949  C1991   1.375   .     S
C1949  H1950   0.949   .     S
N1951  Co1984  1.980   .     S
N1951  C1953   1.327   .     S
N1951  N3101   1.357   1_545 S
N1952  C1955   1.335   .     S
N1952  N2302   1.349   .     S
C1953  H1954   0.950   .     S
C1953  C1986   1.379   .     S
C1955  C2385   1.374   .     S
C1955  H1956   0.950   .     S
C1957  C2388   1.372   .     S
C1957  H1958   0.949   .     S
C1957  C1959   1.372   .     S
C1959  C2387   1.375   .     S
C1959  H1960   0.949   .     S
N1961  Co1981  1.980   .     S
N1961  C1963   1.327   .     S
N1961  N1621   1.357   1_655 S
N1962  C1965   1.335   .     S
N1962  Co3183  1.976   1_545 S
C1963  H1964   0.950   .     S
C1963  C1694   1.379   1_655 S
C1965  C1993   1.374   .     S
C1965  H1966   0.950   .     S
C1967  C1996   1.372   .     S
C1967  H1968   0.949   .     S
C1967  C1969   1.372   .     S
C1969  C1995   1.375   .     S
C1969  H1970   0.949   .     S
N1971  Co1982  1.980   .     S
N1971  C1973   1.327   .     S
N1971  N3431   1.357   .     S
N1972  C1975   1.335   .     S
N1972  Co2384  1.976   .     S
N1972  N32     1.349   1_655 S
C1973  H1974   0.950   .     S
C1973  C3598   1.379   .     S
C1975  C1697   1.374   1_655 S
C1975  H1976   0.950   .     S
C1977  C1700   1.372   1_655 S
C1977  H1978   0.949   .     S
C1977  C1979   1.372   .     S
C1979  C1699   1.375   1_655 S
C1979  H1980   0.949   .     S
Co1981 N2322   1.976   .     S
Co1981 N1652   1.976   1_655 S
Co1982 N3132   1.976   1_545 S
Co1983 N2362   1.976   .     S
Co1984 N1602   1.976   1_655 S
Co1984 N3172   1.976   1_545 S
C1985  C3155   1.374   1_545 S
C1985  C1988   1.490   .     S
C1986  C3103   1.379   1_545 S
C1986  C1987   1.481   .     S
C1987  C3159   1.375   1_545 S
C1988  C3157   1.372   1_545 S
C1989  C3115   1.374   1_545 S
C1989  C1992   1.490   .     S
C1990  C3143   1.379   1_545 S
C1990  C1991   1.481   .     S
C1991  C3119   1.375   1_545 S
C1992  C3117   1.372   1_545 S
C1993  C1996   1.490   .     S
C1994  C1995   1.481   .     S
C1997  C2000   1.490   .     S
C1998  C1999   1.481   .     S
N2001  Co2081  1.980   .     S
N2001  C2003   1.327   .     S
N2001  N2451   1.357   .     S
N2002  C2005   1.335   .     S
N2002  Co2384  1.976   1_455 S
C2003  H2004   0.950   .     S
C2003  C2486   1.379   .     S
C2005  C2085   1.374   .     S
C2005  H2006   0.950   .     S
C2007  C2088   1.372   .     S
C2007  H2008   0.949   .     S
C2007  C2009   1.372   .     S
C2009  C2087   1.375   .     S
C2009  H2010   0.949   .     S
N2011  Co2082  1.980   .     S
N2011  C2013   1.327   .     S
N2012  C2015   1.335   .     S
N2012  Co2183  1.976   .     S
N2012  N2442   1.349   .     S
C2013  H2014   0.950   .     S
C2013  C2090   1.379   .     S
C2015  C2489   1.374   .     S
C2015  H2016   0.950   .     S
C2017  C2492   1.372   .     S
C2017  H2018   0.949   .     S
C2017  C2019   1.372   .     S
C2019  C2491   1.375   .     S
C2019  H2020   0.949   .     S
N2021  Co2083  1.980   .     S
N2021  C2023   1.327   .     S
N2021  N2361   1.357   1_455 S
N2022  C2025   1.335   .     S
N2022  N2162   1.349   .     S
C2023  H2024   0.950   .     S
C2023  C2094   1.379   .     S
C2025  C2193   1.374   .     S
C2025  H2026   0.950   .     S
C2027  C2196   1.372   .     S
C2027  H2028   0.949   .     S
C2027  C2029   1.372   .     S
C2029  C2195   1.375   .     S
C2029  H2030   0.949   .     S
N2031  Co2084  1.980   .     S
N2031  C2033   1.327   .     S
N2032  C2035   1.335   .     S
N2032  Co2482  1.976   .     S
N2032  N3972   1.349   1_455 S
C2033  H2034   0.950   .     S
C2033  C2198   1.379   .     S
C2035  C3697   1.374   .     S
C2035  H2036   0.950   .     S
C2037  C3700   1.372   .     S
C2037  H2038   0.949   .     S
C2037  C2039   1.372   .     S
C2039  C3699   1.375   .     S
C2039  H2040   0.949   .     S
N2041  Co2083  1.980   .     S
N2041  C2043   1.327   .     S
N2041  N2411   1.357   .     S
N2042  C2045   1.335   .     S
N2042  Co2182  1.976   .     S
C2043  H2044   0.950   .     S
C2043  C2490   1.379   .     S
C2045  C2089   1.374   .     S
C2045  H2046   0.950   .     S
C2047  C2092   1.372   .     S
C2047  H2048   0.949   .     S
C2047  C2049   1.372   .     S
C2049  C2091   1.375   .     S
C2049  H2050   0.949   .     S
N2051  Co2084  1.980   .     S
N2051  C2053   1.327   .     S
N2052  C2055   1.335   .     S
N2052  Co2381  1.976   1_455 S
N2052  N2402   1.349   .     S
C2053  H2054   0.950   .     S
C2053  C2086   1.379   .     S
C2055  C2485   1.374   .     S
C2055  H2056   0.950   .     S
C2057  C2488   1.372   .     S
C2057  H2058   0.949   .     S
C2057  C2059   1.372   .     S
C2059  C2487   1.375   .     S
C2059  H2060   0.949   .     S
N2061  Co2081  1.980   .     S
N2061  C2063   1.327   .     S
N2061  N2121   1.357   .     S
N2062  C2065   1.335   .     S
N2062  N2322   1.349   1_455 S
C2063  H2064   0.950   .     S
C2063  C2194   1.379   .     S
C2065  C2093   1.374   .     S
C2065  H2066   0.950   .     S
C2067  C2096   1.372   .     S
C2067  H2068   0.949   .     S
C2067  C2069   1.372   .     S
C2069  C2095   1.375   .     S
C2069  H2070   0.949   .     S
N2071  Co2082  1.980   .     S
N2071  C2073   1.327   .     S
N2071  N3931   1.357   1_455 S
N2072  C2075   1.335   .     S
N2072  Co2484  1.976   .     S
C2073  H2074   0.950   .     S
C2073  C3698   1.379   .     S
C2075  C2197   1.374   .     S
C2075  H2076   0.950   .     S
C2077  C2200   1.372   .     S
C2077  H2078   0.949   .     S
C2077  C2079   1.372   .     S
C2079  C2199   1.375   .     S
C2079  H2080   0.949   .     S
Co2081 N2422   1.976   .     S
Co2081 N2152   1.976   .     S
Co2082 N2342   1.976   1_455 S
Co2083 N2312   1.976   1_455 S
Co2083 N2462   1.976   .     S
Co2084 N2102   1.976   .     S
C2085  C2088   1.490   .     S
C2086  C2087   1.481   .     S
C2089  C2092   1.490   .     S
C2090  C2091   1.481   .     S
C2093  C2325   1.374   1_455 S
C2093  C2096   1.490   .     S
C2094  C2363   1.379   1_455 S
C2094  C2095   1.481   .     S
C2095  C2329   1.375   1_455 S
C2096  C2327   1.372   1_455 S
C2097  C2375   1.374   1_455 S
C2097  C2100   1.490   .     S
C2098  C2333   1.379   1_455 S
C2098  C2099   1.481   .     S
C2099  C2379   1.375   1_455 S
C2100  C2377   1.372   1_455 S
N2101  Co2181  1.980   .     S
N2101  C2103   1.327   .     S
N2101  N2551   1.357   .     S
N2102  C2105   1.335   .     S
C2103  H2104   0.950   .     S
C2103  C2586   1.379   .     S
C2105  C2185   1.374   .     S
C2105  H2106   0.950   .     S
C2107  C2188   1.372   .     S
C2107  H2108   0.949   .     S
C2107  C2109   1.372   .     S
C2109  C2187   1.375   .     S
C2109  H2110   0.949   .     S
N2111  Co2182  1.980   .     S
N2111  C2113   1.327   .     S
N2112  C2115   1.335   .     S
N2112  Co2283  1.976   .     S
N2112  N2542   1.349   .     S
C2113  H2114   0.950   .     S
C2113  C2190   1.379   .     S
C2115  C2589   1.374   .     S
C2115  H2116   0.950   .     S
C2117  C2592   1.372   .     S
C2117  H2118   0.949   .     S
C2117  C2119   1.372   .     S
C2119  C2591   1.375   .     S
C2119  H2120   0.949   .     S
N2121  Co2183  1.980   .     S
N2121  C2123   1.327   .     S
N2122  C2125   1.335   .     S
N2122  N2262   1.349   .     S
C2123  H2124   0.950   .     S
C2123  C2194   1.379   .     S
C2125  C2293   1.374   .     S
C2125  H2126   0.950   .     S
C2127  C2296   1.372   .     S
C2127  H2128   0.949   .     S
C2127  C2129   1.372   .     S
C2129  C2295   1.375   .     S
C2129  H2130   0.949   .     S
N2131  Co2184  1.980   .     S
N2131  C2133   1.327   .     S
N2132  C2135   1.335   .     S
N2132  Co2582  1.976   .     S
N2132  N3672   1.349   .     S
C2133  H2134   0.950   .     S
C2133  C2298   1.379   .     S
C2135  C3797   1.374   .     S
C2135  H2136   0.950   .     S
C2137  C3800   1.372   .     S
C2137  H2138   0.949   .     S
C2137  C2139   1.372   .     S
C2139  C3799   1.375   .     S
C2139  H2140   0.949   .     S
N2141  Co2183  1.980   .     S
N2141  C2143   1.327   .     S
N2141  N2511   1.357   .     S
N2142  C2145   1.335   .     S
N2142  Co2282  1.976   .     S
C2143  H2144   0.950   .     S
C2143  C2590   1.379   .     S
C2145  C2189   1.374   .     S
C2145  H2146   0.950   .     S
C2147  C2192   1.372   .     S
C2147  H2148   0.949   .     S
C2147  C2149   1.372   .     S
C2149  C2191   1.375   .     S
C2149  H2150   0.949   .     S
N2151  Co2184  1.980   .     S
N2151  C2153   1.327   .     S
N2152  C2155   1.335   .     S
N2152  N2502   1.349   .     S
C2153  H2154   0.950   .     S
C2153  C2186   1.379   .     S
C2155  C2585   1.374   .     S
C2155  H2156   0.950   .     S
C2157  C2588   1.372   .     S
C2157  H2158   0.949   .     S
C2157  C2159   1.372   .     S
C2159  C2587   1.375   .     S
C2159  H2160   0.949   .     S
N2161  Co2181  1.980   .     S
N2161  C2163   1.327   .     S
N2161  N2221   1.357   .     S
N2162  C2165   1.335   .     S
C2163  H2164   0.950   .     S
C2163  C2294   1.379   .     S
C2165  C2193   1.374   .     S
C2165  H2166   0.950   .     S
C2167  C2196   1.372   .     S
C2167  H2168   0.949   .     S
C2167  C2169   1.372   .     S
C2169  C2195   1.375   .     S
C2169  H2170   0.949   .     S
N2171  Co2182  1.980   .     S
N2171  C2173   1.327   .     S
N2171  N3631   1.357   .     S
N2172  C2175   1.335   .     S
N2172  Co2584  1.976   .     S
C2173  H2174   0.950   .     S
C2173  C3798   1.379   .     S
C2175  C2297   1.374   .     S
C2175  H2176   0.950   .     S
C2177  C2300   1.372   .     S
C2177  H2178   0.949   .     S
C2177  C2179   1.372   .     S
C2179  C2299   1.375   .     S
C2179  H2180   0.949   .     S
Co2181 N2522   1.976   .     S
Co2181 N2252   1.976   .     S
Co2183 N2562   1.976   .     S
Co2184 N2202   1.976   .     S
C2185  C2188   1.490   .     S
C2186  C2187   1.481   .     S
C2189  C2192   1.490   .     S
C2190  C2191   1.481   .     S
C2193  C2196   1.490   .     S
C2194  C2195   1.481   .     S
C2197  C2200   1.490   .     S
C2198  C2199   1.481   .     S
N2201  Co2281  1.980   .     S
N2201  C2203   1.327   .     S
N2201  N2651   1.357   .     S
N2202  C2205   1.335   .     S
C2203  H2204   0.950   .     S
C2203  C2686   1.379   .     S
C2205  C2285   1.374   .     S
C2205  H2206   0.950   .     S
C2207  C2288   1.372   .     S
C2207  H2208   0.949   .     S
C2207  C2209   1.372   .     S
C2209  C2287   1.375   .     S
C2209  H2210   0.949   .     S
N2211  Co2282  1.980   .     S
N2211  C2213   1.327   .     S
N2212  C2215   1.335   .     S
N2212  Co2383  1.976   .     S
N2212  N2642   1.349   .     S
C2213  H2214   0.950   .     S
C2213  C2290   1.379   .     S
C2215  C2689   1.374   .     S
C2215  H2216   0.950   .     S
C2217  C2692   1.372   .     S
C2217  H2218   0.949   .     S
C2217  C2219   1.372   .     S
C2219  C2691   1.375   .     S
C2219  H2220   0.949   .     S
N2221  Co2283  1.980   .     S
N2221  C2223   1.327   .     S
N2222  C2225   1.335   .     S
N2222  N2362   1.349   .     S
C2223  H2224   0.950   .     S
C2223  C2294   1.379   .     S
C2225  C2393   1.374   .     S
C2225  H2226   0.950   .     S
C2227  C2396   1.372   .     S
C2227  H2228   0.949   .     S
C2227  C2229   1.372   .     S
C2229  C2395   1.375   .     S
C2229  H2230   0.949   .     S
N2231  Co2284  1.980   .     S
N2231  C2233   1.327   .     S
N2232  C2235   1.335   .     S
N2232  Co2682  1.976   .     S
N2232  N3772   1.349   .     S
C2233  H2234   0.950   .     S
C2233  C2398   1.379   .     S
C2235  C3897   1.374   .     S
C2235  H2236   0.950   .     S
C2237  C3900   1.372   .     S
C2237  H2238   0.949   .     S
C2237  C2239   1.372   .     S
C2239  C3899   1.375   .     S
C2239  H2240   0.949   .     S
N2241  Co2283  1.980   .     S
N2241  C2243   1.327   .     S
N2241  N2611   1.357   .     S
N2242  C2245   1.335   .     S
N2242  Co2382  1.976   .     S
C2243  H2244   0.950   .     S
C2243  C2690   1.379   .     S
C2245  C2289   1.374   .     S
C2245  H2246   0.950   .     S
C2247  C2292   1.372   .     S
C2247  H2248   0.949   .     S
C2247  C2249   1.372   .     S
C2249  C2291   1.375   .     S
C2249  H2250   0.949   .     S
N2251  Co2284  1.980   .     S
N2251  C2253   1.327   .     S
N2252  C2255   1.335   .     S
N2252  N2602   1.349   .     S
C2253  H2254   0.950   .     S
C2253  C2286   1.379   .     S
C2255  C2685   1.374   .     S
C2255  H2256   0.950   .     S
C2257  C2688   1.372   .     S
C2257  H2258   0.949   .     S
C2257  C2259   1.372   .     S
C2259  C2687   1.375   .     S
C2259  H2260   0.949   .     S
N2261  Co2281  1.980   .     S
N2261  C2263   1.327   .     S
N2261  N2321   1.357   .     S
N2262  C2265   1.335   .     S
C2263  H2264   0.950   .     S
C2263  C2394   1.379   .     S
C2265  C2293   1.374   .     S
C2265  H2266   0.950   .     S
C2267  C2296   1.372   .     S
C2267  H2268   0.949   .     S
C2267  C2269   1.372   .     S
C2269  C2295   1.375   .     S
C2269  H2270   0.949   .     S
N2271  Co2282  1.980   .     S
N2271  C2273   1.327   .     S
N2271  N3731   1.357   .     S
N2272  C2275   1.335   .     S
N2272  Co2684  1.976   .     S
C2273  H2274   0.950   .     S
C2273  C3898   1.379   .     S
C2275  C2397   1.374   .     S
C2275  H2276   0.950   .     S
C2277  C2400   1.372   .     S
C2277  H2278   0.949   .     S
C2277  C2279   1.372   .     S
C2279  C2399   1.375   .     S
C2279  H2280   0.949   .     S
Co2281 N2622   1.976   .     S
Co2281 N2352   1.976   .     S
Co2283 N2662   1.976   .     S
Co2284 N2302   1.976   .     S
C2285  C2288   1.490   .     S
C2286  C2287   1.481   .     S
C2289  C2292   1.490   .     S
C2290  C2291   1.481   .     S
C2293  C2296   1.490   .     S
C2294  C2295   1.481   .     S
C2297  C2300   1.490   .     S
C2298  C2299   1.481   .     S
N2301  Co2381  1.980   .     S
N2301  C2303   1.327   .     S
N2301  N2751   1.357   .     S
N2302  C2305   1.335   .     S
C2303  H2304   0.950   .     S
C2303  C2786   1.379   .     S
C2305  C2385   1.374   .     S
C2305  H2306   0.950   .     S
C2307  C2388   1.372   .     S
C2307  H2308   0.949   .     S
C2307  C2309   1.372   .     S
C2309  C2387   1.375   .     S
C2309  H2310   0.949   .     S
N2311  Co2382  1.980   .     S
N2311  C2313   1.327   .     S
N2312  C2315   1.335   .     S
N2312  Co2083  1.976   1_655 S
N2312  N2742   1.349   .     S
C2313  H2314   0.950   .     S
C2313  C2390   1.379   .     S
C2315  C2789   1.374   .     S
C2315  H2316   0.950   .     S
C2317  C2792   1.372   .     S
C2317  H2318   0.949   .     S
C2317  C2319   1.372   .     S
C2319  C2791   1.375   .     S
C2319  H2320   0.949   .     S
N2321  Co2383  1.980   .     S
N2321  C2323   1.327   .     S
N2322  C2325   1.335   .     S
N2322  N2062   1.349   1_655 S
C2323  H2324   0.950   .     S
C2323  C2394   1.379   .     S
C2325  C2093   1.374   1_655 S
C2325  H2326   0.950   .     S
C2327  C2096   1.372   1_655 S
C2327  H2328   0.949   .     S
C2327  C2329   1.372   .     S
C2329  C2095   1.375   1_655 S
C2329  H2330   0.949   .     S
N2331  Co2384  1.980   .     S
N2331  C2333   1.327   .     S
N2331  N471    1.357   1_655 S
N2332  C2335   1.335   .     S
N2332  Co2782  1.976   .     S
N2332  N3872   1.349   .     S
C2333  H2334   0.950   .     S
C2333  C2098   1.379   1_655 S
C2335  C3997   1.374   .     S
C2335  H2336   0.950   .     S
C2337  C4000   1.372   .     S
C2337  H2338   0.949   .     S
C2337  C2339   1.372   .     S
C2339  C3999   1.375   .     S
C2339  H2340   0.949   .     S
N2341  Co2383  1.980   .     S
N2341  C2343   1.327   .     S
N2341  N2711   1.357   .     S
N2342  C2345   1.335   .     S
N2342  Co2082  1.976   1_655 S
C2343  H2344   0.950   .     S
C2343  C2790   1.379   .     S
C2345  C2389   1.374   .     S
C2345  H2346   0.950   .     S
C2347  C2392   1.372   .     S
C2347  H2348   0.949   .     S
C2347  C2349   1.372   .     S
C2349  C2391   1.375   .     S
C2349  H2350   0.949   .     S
N2351  Co2384  1.980   .     S
N2351  C2353   1.327   .     S
N2352  C2355   1.335   .     S
N2352  N2702   1.349   .     S
C2353  H2354   0.950   .     S
C2353  C2386   1.379   .     S
C2355  C2785   1.374   .     S
C2355  H2356   0.950   .     S
C2357  C2788   1.372   .     S
C2357  H2358   0.949   .     S
C2357  C2359   1.372   .     S
C2359  C2787   1.375   .     S
C2359  H2360   0.949   .     S
N2361  Co2381  1.980   .     S
N2361  C2363   1.327   .     S
N2361  N2021   1.357   1_655 S
N2362  C2365   1.335   .     S
C2363  H2364   0.950   .     S
C2363  C2094   1.379   1_655 S
C2365  C2393   1.374   .     S
C2365  H2366   0.950   .     S
C2367  C2396   1.372   .     S
C2367  H2368   0.949   .     S
C2367  C2369   1.372   .     S
C2369  C2395   1.375   .     S
C2369  H2370   0.949   .     S
N2371  Co2382  1.980   .     S
N2371  C2373   1.327   .     S
N2371  N3831   1.357   .     S
N2372  C2375   1.335   .     S
N2372  Co2784  1.976   .     S
N2372  N432    1.349   1_655 S
C2373  H2374   0.950   .     S
C2373  C3998   1.379   .     S
C2375  C2097   1.374   1_655 S
C2375  H2376   0.950   .     S
C2377  C2100   1.372   1_655 S
C2377  H2378   0.949   .     S
C2377  C2379   1.372   .     S
C2379  C2099   1.375   1_655 S
C2379  H2380   0.949   .     S
Co2381 N2722   1.976   .     S
Co2381 N2052   1.976   1_655 S
Co2383 N2762   1.976   .     S
Co2384 N2002   1.976   1_655 S
C2385  C2388   1.490   .     S
C2386  C2387   1.481   .     S
C2389  C2392   1.490   .     S
C2390  C2391   1.481   .     S
C2393  C2396   1.490   .     S
C2394  C2395   1.481   .     S
C2397  C2400   1.490   .     S
C2398  C2399   1.481   .     S
N2401  Co2481  1.980   .     S
N2401  C2403   1.327   .     S
N2401  N2851   1.357   .     S
N2402  C2405   1.335   .     S
N2402  Co2784  1.976   1_455 S
C2403  H2404   0.950   .     S
C2403  C2886   1.379   .     S
C2405  C2485   1.374   .     S
C2405  H2406   0.950   .     S
C2407  C2488   1.372   .     S
C2407  H2408   0.949   .     S
C2407  C2409   1.372   .     S
C2409  C2487   1.375   .     S
C2409  H2410   0.949   .     S
N2411  Co2482  1.980   .     S
N2411  C2413   1.327   .     S
N2412  C2415   1.335   .     S
N2412  Co2583  1.976   .     S
N2412  N2842   1.349   .     S
C2413  H2414   0.950   .     S
C2413  C2490   1.379   .     S
C2415  C2889   1.374   .     S
C2415  H2416   0.950   .     S
C2417  C2892   1.372   .     S
C2417  H2418   0.949   .     S
C2417  C2419   1.372   .     S
C2419  C2891   1.375   .     S
C2419  H2420   0.949   .     S
N2421  Co2483  1.980   .     S
N2421  C2423   1.327   .     S
N2421  N2761   1.357   1_455 S
N2422  C2425   1.335   .     S
N2422  N2562   1.349   .     S
C2423  H2424   0.950   .     S
C2423  C2494   1.379   .     S
C2425  C2593   1.374   .     S
C2425  H2426   0.950   .     S
C2427  C2596   1.372   .     S
C2427  H2428   0.949   .     S
C2427  C2429   1.372   .     S
C2429  C2595   1.375   .     S
C2429  H2430   0.949   .     S
N2431  Co2484  1.980   .     S
N2431  C2433   1.327   .     S
N2432  C2435   1.335   .     S
N2432  Co2882  1.976   .     S
N2432  N4372   1.349   1_455 S
C2433  H2434   0.950   .     S
C2433  C2598   1.379   .     S
C2435  C4097   1.374   .     S
C2435  H2436   0.950   .     S
C2437  C4100   1.372   .     S
C2437  H2438   0.949   .     S
C2437  C2439   1.372   .     S
C2439  C4099   1.375   .     S
C2439  H2440   0.949   .     S
N2441  Co2483  1.980   .     S
N2441  C2443   1.327   .     S
N2441  N2811   1.357   .     S
N2442  C2445   1.335   .     S
N2442  Co2582  1.976   .     S
C2443  H2444   0.950   .     S
C2443  C2890   1.379   .     S
C2445  C2489   1.374   .     S
C2445  H2446   0.950   .     S
C2447  C2492   1.372   .     S
C2447  H2448   0.949   .     S
C2447  C2449   1.372   .     S
C2449  C2491   1.375   .     S
C2449  H2450   0.949   .     S
N2451  Co2484  1.980   .     S
N2451  C2453   1.327   .     S
N2452  C2455   1.335   .     S
N2452  Co2781  1.976   1_455 S
N2452  N2802   1.349   .     S
C2453  H2454   0.950   .     S
C2453  C2486   1.379   .     S
C2455  C2885   1.374   .     S
C2455  H2456   0.950   .     S
C2457  C2888   1.372   .     S
C2457  H2458   0.949   .     S
C2457  C2459   1.372   .     S
C2459  C2887   1.375   .     S
C2459  H2460   0.949   .     S
N2461  Co2481  1.980   .     S
N2461  C2463   1.327   .     S
N2461  N2521   1.357   .     S
N2462  C2465   1.335   .     S
N2462  N2722   1.349   1_455 S
C2463  H2464   0.950   .     S
C2463  C2594   1.379   .     S
C2465  C2493   1.374   .     S
C2465  H2466   0.950   .     S
C2467  C2496   1.372   .     S
C2467  H2468   0.949   .     S
C2467  C2469   1.372   .     S
C2469  C2495   1.375   .     S
C2469  H2470   0.949   .     S
N2471  Co2482  1.980   .     S
N2471  C2473   1.327   .     S
N2471  N4331   1.357   1_455 S
N2472  C2475   1.335   .     S
N2472  Co2884  1.976   .     S
C2473  H2474   0.950   .     S
C2473  C4098   1.379   .     S
C2475  C2597   1.374   .     S
C2475  H2476   0.950   .     S
C2477  C2600   1.372   .     S
C2477  H2478   0.949   .     S
C2477  C2479   1.372   .     S
C2479  C2599   1.375   .     S
C2479  H2480   0.949   .     S
Co2481 N2822   1.976   .     S
Co2481 N2552   1.976   .     S
Co2482 N2742   1.976   1_455 S
Co2483 N2712   1.976   1_455 S
Co2483 N2862   1.976   .     S
Co2484 N2502   1.976   .     S
C2485  C2488   1.490   .     S
C2486  C2487   1.481   .     S
C2489  C2492   1.490   .     S
C2490  C2491   1.481   .     S
C2493  C2725   1.374   1_455 S
C2493  C2496   1.490   .     S
C2494  C2763   1.379   1_455 S
C2494  C2495   1.481   .     S
C2495  C2729   1.375   1_455 S
C2496  C2727   1.372   1_455 S
C2497  C2775   1.374   1_455 S
C2497  C2500   1.490   .     S
C2498  C2733   1.379   1_455 S
C2498  C2499   1.481   .     S
C2499  C2779   1.375   1_455 S
C2500  C2777   1.372   1_455 S
N2501  Co2581  1.980   .     S
N2501  C2503   1.327   .     S
N2501  N2951   1.357   .     S
N2502  C2505   1.335   .     S
C2503  H2504   0.950   .     S
C2503  C2986   1.379   .     S
C2505  C2585   1.374   .     S
C2505  H2506   0.950   .     S
C2507  C2588   1.372   .     S
C2507  H2508   0.949   .     S
C2507  C2509   1.372   .     S
C2509  C2587   1.375   .     S
C2509  H2510   0.949   .     S
N2511  Co2582  1.980   .     S
N2511  C2513   1.327   .     S
N2512  C2515   1.335   .     S
N2512  Co2683  1.976   .     S
N2512  N2942   1.349   .     S
C2513  H2514   0.950   .     S
C2513  C2590   1.379   .     S
C2515  C2989   1.374   .     S
C2515  H2516   0.950   .     S
C2517  C2992   1.372   .     S
C2517  H2518   0.949   .     S
C2517  C2519   1.372   .     S
C2519  C2991   1.375   .     S
C2519  H2520   0.949   .     S
N2521  Co2583  1.980   .     S
N2521  C2523   1.327   .     S
N2522  C2525   1.335   .     S
N2522  N2662   1.349   .     S
C2523  H2524   0.950   .     S
C2523  C2594   1.379   .     S
C2525  C2693   1.374   .     S
C2525  H2526   0.950   .     S
C2527  C2696   1.372   .     S
C2527  H2528   0.949   .     S
C2527  C2529   1.372   .     S
C2529  C2695   1.375   .     S
C2529  H2530   0.949   .     S
N2531  Co2584  1.980   .     S
N2531  C2533   1.327   .     S
N2532  C2535   1.335   .     S
N2532  Co2982  1.976   .     S
N2532  N4072   1.349   .     S
C2533  H2534   0.950   .     S
C2533  C2698   1.379   .     S
C2535  C4197   1.374   .     S
C2535  H2536   0.950   .     S
C2537  C4200   1.372   .     S
C2537  H2538   0.949   .     S
C2537  C2539   1.372   .     S
C2539  C4199   1.375   .     S
C2539  H2540   0.949   .     S
N2541  Co2583  1.980   .     S
N2541  C2543   1.327   .     S
N2541  N2911   1.357   .     S
N2542  C2545   1.335   .     S
N2542  Co2682  1.976   .     S
C2543  H2544   0.950   .     S
C2543  C2990   1.379   .     S
C2545  C2589   1.374   .     S
C2545  H2546   0.950   .     S
C2547  C2592   1.372   .     S
C2547  H2548   0.949   .     S
C2547  C2549   1.372   .     S
C2549  C2591   1.375   .     S
C2549  H2550   0.949   .     S
N2551  Co2584  1.980   .     S
N2551  C2553   1.327   .     S
N2552  C2555   1.335   .     S
N2552  N2902   1.349   .     S
C2553  H2554   0.950   .     S
C2553  C2586   1.379   .     S
C2555  C2985   1.374   .     S
C2555  H2556   0.950   .     S
C2557  C2988   1.372   .     S
C2557  H2558   0.949   .     S
C2557  C2559   1.372   .     S
C2559  C2987   1.375   .     S
C2559  H2560   0.949   .     S
N2561  Co2581  1.980   .     S
N2561  C2563   1.327   .     S
N2561  N2621   1.357   .     S
N2562  C2565   1.335   .     S
C2563  H2564   0.950   .     S
C2563  C2694   1.379   .     S
C2565  C2593   1.374   .     S
C2565  H2566   0.950   .     S
C2567  C2596   1.372   .     S
C2567  H2568   0.949   .     S
C2567  C2569   1.372   .     S
C2569  C2595   1.375   .     S
C2569  H2570   0.949   .     S
N2571  Co2582  1.980   .     S
N2571  C2573   1.327   .     S
N2571  N4031   1.357   .     S
N2572  C2575   1.335   .     S
N2572  Co2984  1.976   .     S
C2573  H2574   0.950   .     S
C2573  C4198   1.379   .     S
C2575  C2697   1.374   .     S
C2575  H2576   0.950   .     S
C2577  C2700   1.372   .     S
C2577  H2578   0.949   .     S
C2577  C2579   1.372   .     S
C2579  C2699   1.375   .     S
C2579  H2580   0.949   .     S
Co2581 N2922   1.976   .     S
Co2581 N2652   1.976   .     S
Co2583 N2962   1.976   .     S
Co2584 N2602   1.976   .     S
C2585  C2588   1.490   .     S
C2586  C2587   1.481   .     S
C2589  C2592   1.490   .     S
C2590  C2591   1.481   .     S
C2593  C2596   1.490   .     S
C2594  C2595   1.481   .     S
C2597  C2600   1.490   .     S
C2598  C2599   1.481   .     S
N2601  Co2681  1.980   .     S
N2601  C2603   1.327   .     S
N2601  N3051   1.357   .     S
N2602  C2605   1.335   .     S
C2603  H2604   0.950   .     S
C2603  C3086   1.379   .     S
C2605  C2685   1.374   .     S
C2605  H2606   0.950   .     S
C2607  C2688   1.372   .     S
C2607  H2608   0.949   .     S
C2607  C2609   1.372   .     S
C2609  C2687   1.375   .     S
C2609  H2610   0.949   .     S
N2611  Co2682  1.980   .     S
N2611  C2613   1.327   .     S
N2612  C2615   1.335   .     S
N2612  Co2783  1.976   .     S
N2612  N3042   1.349   .     S
C2613  H2614   0.950   .     S
C2613  C2690   1.379   .     S
C2615  C3089   1.374   .     S
C2615  H2616   0.950   .     S
C2617  C3092   1.372   .     S
C2617  H2618   0.949   .     S
C2617  C2619   1.372   .     S
C2619  C3091   1.375   .     S
C2619  H2620   0.949   .     S
N2621  Co2683  1.980   .     S
N2621  C2623   1.327   .     S
N2622  C2625   1.335   .     S
N2622  N2762   1.349   .     S
C2623  H2624   0.950   .     S
C2623  C2694   1.379   .     S
C2625  C2793   1.374   .     S
C2625  H2626   0.950   .     S
C2627  C2796   1.372   .     S
C2627  H2628   0.949   .     S
C2627  C2629   1.372   .     S
C2629  C2795   1.375   .     S
C2629  H2630   0.949   .     S
N2631  Co2684  1.980   .     S
N2631  C2633   1.327   .     S
N2632  C2635   1.335   .     S
N2632  Co3082  1.976   .     S
N2632  N4172   1.349   .     S
C2633  H2634   0.950   .     S
C2633  C2798   1.379   .     S
C2635  C4297   1.374   .     S
C2635  H2636   0.950   .     S
C2637  C4300   1.372   .     S
C2637  H2638   0.949   .     S
C2637  C2639   1.372   .     S
C2639  C4299   1.375   .     S
C2639  H2640   0.949   .     S
N2641  Co2683  1.980   .     S
N2641  C2643   1.327   .     S
N2641  N3011   1.357   .     S
N2642  C2645   1.335   .     S
N2642  Co2782  1.976   .     S
C2643  H2644   0.950   .     S
C2643  C3090   1.379   .     S
C2645  C2689   1.374   .     S
C2645  H2646   0.950   .     S
C2647  C2692   1.372   .     S
C2647  H2648   0.949   .     S
C2647  C2649   1.372   .     S
C2649  C2691   1.375   .     S
C2649  H2650   0.949   .     S
N2651  Co2684  1.980   .     S
N2651  C2653   1.327   .     S
N2652  C2655   1.335   .     S
N2652  N3002   1.349   .     S
C2653  H2654   0.950   .     S
C2653  C2686   1.379   .     S
C2655  C3085   1.374   .     S
C2655  H2656   0.950   .     S
C2657  C3088   1.372   .     S
C2657  H2658   0.949   .     S
C2657  C2659   1.372   .     S
C2659  C3087   1.375   .     S
C2659  H2660   0.949   .     S
N2661  Co2681  1.980   .     S
N2661  C2663   1.327   .     S
N2661  N2721   1.357   .     S
N2662  C2665   1.335   .     S
C2663  H2664   0.950   .     S
C2663  C2794   1.379   .     S
C2665  C2693   1.374   .     S
C2665  H2666   0.950   .     S
C2667  C2696   1.372   .     S
C2667  H2668   0.949   .     S
C2667  C2669   1.372   .     S
C2669  C2695   1.375   .     S
C2669  H2670   0.949   .     S
N2671  Co2682  1.980   .     S
N2671  C2673   1.327   .     S
N2671  N4131   1.357   .     S
N2672  C2675   1.335   .     S
N2672  Co3084  1.976   .     S
C2673  H2674   0.950   .     S
C2673  C4298   1.379   .     S
C2675  C2797   1.374   .     S
C2675  H2676   0.950   .     S
C2677  C2800   1.372   .     S
C2677  H2678   0.949   .     S
C2677  C2679   1.372   .     S
C2679  C2799   1.375   .     S
C2679  H2680   0.949   .     S
Co2681 N3022   1.976   .     S
Co2681 N2752   1.976   .     S
Co2683 N3062   1.976   .     S
Co2684 N2702   1.976   .     S
C2685  C2688   1.490   .     S
C2686  C2687   1.481   .     S
C2689  C2692   1.490   .     S
C2690  C2691   1.481   .     S
C2693  C2696   1.490   .     S
C2694  C2695   1.481   .     S
C2697  C2700   1.490   .     S
C2698  C2699   1.481   .     S
N2701  Co2781  1.980   .     S
N2701  C2703   1.327   .     S
N2701  N3151   1.357   .     S
N2702  C2705   1.335   .     S
C2703  H2704   0.950   .     S
C2703  C3186   1.379   .     S
C2705  C2785   1.374   .     S
C2705  H2706   0.950   .     S
C2707  C2788   1.372   .     S
C2707  H2708   0.949   .     S
C2707  C2709   1.372   .     S
C2709  C2787   1.375   .     S
C2709  H2710   0.949   .     S
N2711  Co2782  1.980   .     S
N2711  C2713   1.327   .     S
N2712  C2715   1.335   .     S
N2712  Co2483  1.976   1_655 S
N2712  N3142   1.349   .     S
C2713  H2714   0.950   .     S
C2713  C2790   1.379   .     S
C2715  C3189   1.374   .     S
C2715  H2716   0.950   .     S
C2717  C3192   1.372   .     S
C2717  H2718   0.949   .     S
C2717  C2719   1.372   .     S
C2719  C3191   1.375   .     S
C2719  H2720   0.949   .     S
N2721  Co2783  1.980   .     S
N2721  C2723   1.327   .     S
N2722  C2725   1.335   .     S
N2722  N2462   1.349   1_655 S
C2723  H2724   0.950   .     S
C2723  C2794   1.379   .     S
C2725  C2493   1.374   1_655 S
C2725  H2726   0.950   .     S
C2727  C2496   1.372   1_655 S
C2727  H2728   0.949   .     S
C2727  C2729   1.372   .     S
C2729  C2495   1.375   1_655 S
C2729  H2730   0.949   .     S
N2731  Co2784  1.980   .     S
N2731  C2733   1.327   .     S
N2731  N871    1.357   1_655 S
N2732  C2735   1.335   .     S
N2732  Co3182  1.976   .     S
N2732  N4272   1.349   .     S
C2733  H2734   0.950   .     S
C2733  C2498   1.379   1_655 S
C2735  C4397   1.374   .     S
C2735  H2736   0.950   .     S
C2737  C4400   1.372   .     S
C2737  H2738   0.949   .     S
C2737  C2739   1.372   .     S
C2739  C4399   1.375   .     S
C2739  H2740   0.949   .     S
N2741  Co2783  1.980   .     S
N2741  C2743   1.327   .     S
N2741  N3111   1.357   .     S
N2742  C2745   1.335   .     S
N2742  Co2482  1.976   1_655 S
C2743  H2744   0.950   .     S
C2743  C3190   1.379   .     S
C2745  C2789   1.374   .     S
C2745  H2746   0.950   .     S
C2747  C2792   1.372   .     S
C2747  H2748   0.949   .     S
C2747  C2749   1.372   .     S
C2749  C2791   1.375   .     S
C2749  H2750   0.949   .     S
N2751  Co2784  1.980   .     S
N2751  C2753   1.327   .     S
N2752  C2755   1.335   .     S
N2752  N3102   1.349   .     S
C2753  H2754   0.950   .     S
C2753  C2786   1.379   .     S
C2755  C3185   1.374   .     S
C2755  H2756   0.950   .     S
C2757  C3188   1.372   .     S
C2757  H2758   0.949   .     S
C2757  C2759   1.372   .     S
C2759  C3187   1.375   .     S
C2759  H2760   0.949   .     S
N2761  Co2781  1.980   .     S
N2761  C2763   1.327   .     S
N2761  N2421   1.357   1_655 S
N2762  C2765   1.335   .     S
C2763  H2764   0.950   .     S
C2763  C2494   1.379   1_655 S
C2765  C2793   1.374   .     S
C2765  H2766   0.950   .     S
C2767  C2796   1.372   .     S
C2767  H2768   0.949   .     S
C2767  C2769   1.372   .     S
C2769  C2795   1.375   .     S
C2769  H2770   0.949   .     S
N2771  Co2782  1.980   .     S
N2771  C2773   1.327   .     S
N2771  N4231   1.357   .     S
N2772  C2775   1.335   .     S
N2772  Co3184  1.976   .     S
N2772  N832    1.349   1_655 S
C2773  H2774   0.950   .     S
C2773  C4398   1.379   .     S
C2775  C2497   1.374   1_655 S
C2775  H2776   0.950   .     S
C2777  C2500   1.372   1_655 S
C2777  H2778   0.949   .     S
C2777  C2779   1.372   .     S
C2779  C2499   1.375   1_655 S
C2779  H2780   0.949   .     S
Co2781 N3122   1.976   .     S
Co2781 N2452   1.976   1_655 S
Co2783 N3162   1.976   .     S
Co2784 N2402   1.976   1_655 S
C2785  C2788   1.490   .     S
C2786  C2787   1.481   .     S
C2789  C2792   1.490   .     S
C2790  C2791   1.481   .     S
C2793  C2796   1.490   .     S
C2794  C2795   1.481   .     S
C2797  C2800   1.490   .     S
C2798  C2799   1.481   .     S
N2801  Co2881  1.980   .     S
N2801  C2803   1.327   .     S
N2801  N1651   1.357   1_565 S
N2802  C2805   1.335   .     S
N2802  Co3184  1.976   1_455 S
C2803  H2804   0.950   .     S
C2803  C1686   1.379   1_565 S
C2805  C2885   1.374   .     S
C2805  H2806   0.950   .     S
C2807  C2888   1.372   .     S
C2807  H2808   0.949   .     S
C2807  C2809   1.372   .     S
C2809  C2887   1.375   .     S
C2809  H2810   0.949   .     S
N2811  Co2882  1.980   .     S
N2811  C2813   1.327   .     S
N2812  C2815   1.335   .     S
N2812  Co2983  1.976   .     S
N2812  N1642   1.349   1_565 S
C2813  H2814   0.950   .     S
C2813  C2890   1.379   .     S
C2815  C1689   1.374   1_565 S
C2815  H2816   0.950   .     S
C2817  C1692   1.372   1_565 S
C2817  H2818   0.949   .     S
C2817  C2819   1.372   .     S
C2819  C1691   1.375   1_565 S
C2819  H2820   0.949   .     S
N2821  Co2883  1.980   .     S
N2821  C2823   1.327   .     S
N2821  N3161   1.357   1_455 S
N2822  C2825   1.335   .     S
N2822  N2962   1.349   .     S
C2823  H2824   0.950   .     S
C2823  C2894   1.379   .     S
C2825  C2993   1.374   .     S
C2825  H2826   0.950   .     S
C2827  C2996   1.372   .     S
C2827  H2828   0.949   .     S
C2827  C2829   1.372   .     S
C2829  C2995   1.375   .     S
C2829  H2830   0.949   .     S
N2831  Co2884  1.980   .     S
N2831  C2833   1.327   .     S
N2832  C2835   1.335   .     S
N2832  Co1682  1.976   1_565 S
N2832  N4772   1.349   1_455 S
C2833  H2834   0.950   .     S
C2833  C2998   1.379   .     S
C2835  C4497   1.374   .     S
C2835  H2836   0.950   .     S
C2837  C4500   1.372   .     S
C2837  H2838   0.949   .     S
C2837  C2839   1.372   .     S
C2839  C4499   1.375   .     S
C2839  H2840   0.949   .     S
N2841  Co2883  1.980   .     S
N2841  C2843   1.327   .     S
N2841  N1611   1.357   1_565 S
N2842  C2845   1.335   .     S
N2842  Co2982  1.976   .     S
C2843  H2844   0.950   .     S
C2843  C1690   1.379   1_565 S
C2845  C2889   1.374   .     S
C2845  H2846   0.950   .     S
C2847  C2892   1.372   .     S
C2847  H2848   0.949   .     S
C2847  C2849   1.372   .     S
C2849  C2891   1.375   .     S
C2849  H2850   0.949   .     S
N2851  Co2884  1.980   .     S
N2851  C2853   1.327   .     S
N2852  C2855   1.335   .     S
N2852  Co3181  1.976   1_455 S
N2852  N1602   1.349   1_565 S
C2853  H2854   0.950   .     S
C2853  C2886   1.379   .     S
C2855  C1685   1.374   1_565 S
C2855  H2856   0.950   .     S
C2857  C1688   1.372   1_565 S
C2857  H2858   0.949   .     S
C2857  C2859   1.372   .     S
C2859  C1687   1.375   1_565 S
C2859  H2860   0.949   .     S
N2861  Co2881  1.980   .     S
N2861  C2863   1.327   .     S
N2861  N2921   1.357   .     S
N2862  C2865   1.335   .     S
N2862  N3122   1.349   1_455 S
C2863  H2864   0.950   .     S
C2863  C2994   1.379   .     S
C2865  C2893   1.374   .     S
C2865  H2866   0.950   .     S
C2867  C2896   1.372   .     S
C2867  H2868   0.949   .     S
C2867  C2869   1.372   .     S
C2869  C2895   1.375   .     S
C2869  H2870   0.949   .     S
N2871  Co2882  1.980   .     S
N2871  C2873   1.327   .     S
N2871  N4731   1.357   1_455 S
N2872  C2875   1.335   .     S
N2872  Co1684  1.976   1_565 S
C2873  H2874   0.950   .     S
C2873  C4498   1.379   .     S
C2875  C2997   1.374   .     S
C2875  H2876   0.950   .     S
C2877  C3000   1.372   .     S
C2877  H2878   0.949   .     S
C2877  C2879   1.372   .     S
C2879  C2999   1.375   .     S
C2879  H2880   0.949   .     S
Co2881 N1622   1.976   1_565 S
Co2881 N2952   1.976   .     S
Co2882 N3142   1.976   1_455 S
Co2883 N3112   1.976   1_455 S
Co2883 N1662   1.976   1_565 S
Co2884 N2902   1.976   .     S
C2885  C2888   1.490   .     S
C2886  C2887   1.481   .     S
C2889  C2892   1.490   .     S
C2890  C2891   1.481   .     S
C2893  C3125   1.374   1_455 S
C2893  C2896   1.490   .     S
C2894  C3163   1.379   1_455 S
C2894  C2895   1.481   .     S
C2895  C3129   1.375   1_455 S
C2896  C3127   1.372   1_455 S
C2897  C3175   1.374   1_455 S
C2897  C2900   1.490   .     S
C2898  C3133   1.379   1_455 S
C2898  C2899   1.481   .     S
C2899  C3179   1.375   1_455 S
C2900  C3177   1.372   1_455 S
N2901  Co2981  1.980   .     S
N2901  C2903   1.327   .     S
N2901  N1751   1.357   1_565 S
N2902  C2905   1.335   .     S
C2903  H2904   0.950   .     S
C2903  C1786   1.379   1_565 S
C2905  C2985   1.374   .     S
C2905  H2906   0.950   .     S
C2907  C2988   1.372   .     S
C2907  H2908   0.949   .     S
C2907  C2909   1.372   .     S
C2909  C2987   1.375   .     S
C2909  H2910   0.949   .     S
N2911  Co2982  1.980   .     S
N2911  C2913   1.327   .     S
N2912  C2915   1.335   .     S
N2912  Co3083  1.976   .     S
N2912  N1742   1.349   1_565 S
C2913  H2914   0.950   .     S
C2913  C2990   1.379   .     S
C2915  C1789   1.374   1_565 S
C2915  H2916   0.950   .     S
C2917  C1792   1.372   1_565 S
C2917  H2918   0.949   .     S
C2917  C2919   1.372   .     S
C2919  C1791   1.375   1_565 S
C2919  H2920   0.949   .     S
N2921  Co2983  1.980   .     S
N2921  C2923   1.327   .     S
N2922  C2925   1.335   .     S
N2922  N3062   1.349   .     S
C2923  H2924   0.950   .     S
C2923  C2994   1.379   .     S
C2925  C3093   1.374   .     S
C2925  H2926   0.950   .     S
C2927  C3096   1.372   .     S
C2927  H2928   0.949   .     S
C2927  C2929   1.372   .     S
C2929  C3095   1.375   .     S
C2929  H2930   0.949   .     S
N2931  Co2984  1.980   .     S
N2931  C2933   1.327   .     S
N2932  C2935   1.335   .     S
N2932  Co1782  1.976   1_565 S
N2932  N4472   1.349   .     S
C2933  H2934   0.950   .     S
C2933  C3098   1.379   .     S
C2935  C4597   1.374   .     S
C2935  H2936   0.950   .     S
C2937  C4600   1.372   .     S
C2937  H2938   0.949   .     S
C2937  C2939   1.372   .     S
C2939  C4599   1.375   .     S
C2939  H2940   0.949   .     S
N2941  Co2983  1.980   .     S
N2941  C2943   1.327   .     S
N2941  N1711   1.357   1_565 S
N2942  C2945   1.335   .     S
N2942  Co3082  1.976   .     S
C2943  H2944   0.950   .     S
C2943  C1790   1.379   1_565 S
C2945  C2989   1.374   .     S
C2945  H2946   0.950   .     S
C2947  C2992   1.372   .     S
C2947  H2948   0.949   .     S
C2947  C2949   1.372   .     S
C2949  C2991   1.375   .     S
C2949  H2950   0.949   .     S
N2951  Co2984  1.980   .     S
N2951  C2953   1.327   .     S
N2952  C2955   1.335   .     S
N2952  N1702   1.349   1_565 S
C2953  H2954   0.950   .     S
C2953  C2986   1.379   .     S
C2955  C1785   1.374   1_565 S
C2955  H2956   0.950   .     S
C2957  C1788   1.372   1_565 S
C2957  H2958   0.949   .     S
C2957  C2959   1.372   .     S
C2959  C1787   1.375   1_565 S
C2959  H2960   0.949   .     S
N2961  Co2981  1.980   .     S
N2961  C2963   1.327   .     S
N2961  N3021   1.357   .     S
N2962  C2965   1.335   .     S
C2963  H2964   0.950   .     S
C2963  C3094   1.379   .     S
C2965  C2993   1.374   .     S
C2965  H2966   0.950   .     S
C2967  C2996   1.372   .     S
C2967  H2968   0.949   .     S
C2967  C2969   1.372   .     S
C2969  C2995   1.375   .     S
C2969  H2970   0.949   .     S
N2971  Co2982  1.980   .     S
N2971  C2973   1.327   .     S
N2971  N4431   1.357   .     S
N2972  C2975   1.335   .     S
N2972  Co1784  1.976   1_565 S
C2973  H2974   0.950   .     S
C2973  C4598   1.379   .     S
C2975  C3097   1.374   .     S
C2975  H2976   0.950   .     S
C2977  C3100   1.372   .     S
C2977  H2978   0.949   .     S
C2977  C2979   1.372   .     S
C2979  C3099   1.375   .     S
C2979  H2980   0.949   .     S
Co2981 N1722   1.976   1_565 S
Co2981 N3052   1.976   .     S
Co2983 N1762   1.976   1_565 S
Co2984 N3002   1.976   .     S
C2985  C2988   1.490   .     S
C2986  C2987   1.481   .     S
C2989  C2992   1.490   .     S
C2990  C2991   1.481   .     S
C2993  C2996   1.490   .     S
C2994  C2995   1.481   .     S
C2997  C3000   1.490   .     S
C2998  C2999   1.481   .     S
N3001  Co3081  1.980   .     S
N3001  C3003   1.327   .     S
N3001  N1851   1.357   1_565 S
N3002  C3005   1.335   .     S
C3003  H3004   0.950   .     S
C3003  C1886   1.379   1_565 S
C3005  C3085   1.374   .     S
C3005  H3006   0.950   .     S
C3007  C3088   1.372   .     S
C3007  H3008   0.949   .     S
C3007  C3009   1.372   .     S
C3009  C3087   1.375   .     S
C3009  H3010   0.949   .     S
N3011  Co3082  1.980   .     S
N3011  C3013   1.327   .     S
N3012  C3015   1.335   .     S
N3012  Co3183  1.976   .     S
N3012  N1842   1.349   1_565 S
C3013  H3014   0.950   .     S
C3013  C3090   1.379   .     S
C3015  C1889   1.374   1_565 S
C3015  H3016   0.950   .     S
C3017  C1892   1.372   1_565 S
C3017  H3018   0.949   .     S
C3017  C3019   1.372   .     S
C3019  C1891   1.375   1_565 S
C3019  H3020   0.949   .     S
N3021  Co3083  1.980   .     S
N3021  C3023   1.327   .     S
N3022  C3025   1.335   .     S
N3022  N3162   1.349   .     S
C3023  H3024   0.950   .     S
C3023  C3094   1.379   .     S
C3025  C3193   1.374   .     S
C3025  H3026   0.950   .     S
C3027  C3196   1.372   .     S
C3027  H3028   0.949   .     S
C3027  C3029   1.372   .     S
C3029  C3195   1.375   .     S
C3029  H3030   0.949   .     S
N3031  Co3084  1.980   .     S
N3031  C3033   1.327   .     S
N3032  C3035   1.335   .     S
N3032  Co1882  1.976   1_565 S
N3032  N4572   1.349   .     S
C3033  H3034   0.950   .     S
C3033  C3198   1.379   .     S
C3035  C4697   1.374   .     S
C3035  H3036   0.950   .     S
C3037  C4700   1.372   .     S
C3037  H3038   0.949   .     S
C3037  C3039   1.372   .     S
C3039  C4699   1.375   .     S
C3039  H3040   0.949   .     S
N3041  Co3083  1.980   .     S
N3041  C3043   1.327   .     S
N3041  N1811   1.357   1_565 S
N3042  C3045   1.335   .     S
N3042  Co3182  1.976   .     S
C3043  H3044   0.950   .     S
C3043  C1890   1.379   1_565 S
C3045  C3089   1.374   .     S
C3045  H3046   0.950   .     S
C3047  C3092   1.372   .     S
C3047  H3048   0.949   .     S
C3047  C3049   1.372   .     S
C3049  C3091   1.375   .     S
C3049  H3050   0.949   .     S
N3051  Co3084  1.980   .     S
N3051  C3053   1.327   .     S
N3052  C3055   1.335   .     S
N3052  N1802   1.349   1_565 S
C3053  H3054   0.950   .     S
C3053  C3086   1.379   .     S
C3055  C1885   1.374   1_565 S
C3055  H3056   0.950   .     S
C3057  C1888   1.372   1_565 S
C3057  H3058   0.949   .     S
C3057  C3059   1.372   .     S
C3059  C1887   1.375   1_565 S
C3059  H3060   0.949   .     S
N3061  Co3081  1.980   .     S
N3061  C3063   1.327   .     S
N3061  N3121   1.357   .     S
N3062  C3065   1.335   .     S
C3063  H3064   0.950   .     S
C3063  C3194   1.379   .     S
C3065  C3093   1.374   .     S
C3065  H3066   0.950   .     S
C3067  C3096   1.372   .     S
C3067  H3068   0.949   .     S
C3067  C3069   1.372   .     S
C3069  C3095   1.375   .     S
C3069  H3070   0.949   .     S
N3071  Co3082  1.980   .     S
N3071  C3073   1.327   .     S
N3071  N4531   1.357   .     S
N3072  C3075   1.335   .     S
N3072  Co1884  1.976   1_565 S
C3073  H3074   0.950   .     S
C3073  C4698   1.379   .     S
C3075  C3197   1.374   .     S
C3075  H3076   0.950   .     S
C3077  C3200   1.372   .     S
C3077  H3078   0.949   .     S
C3077  C3079   1.372   .     S
C3079  C3199   1.375   .     S
C3079  H3080   0.949   .     S
Co3081 N1822   1.976   1_565 S
Co3081 N3152   1.976   .     S
Co3083 N1862   1.976   1_565 S
Co3084 N3102   1.976   .     S
C3085  C3088   1.490   .     S
C3086  C3087   1.481   .     S
C3089  C3092   1.490   .     S
C3090  C3091   1.481   .     S
C3093  C3096   1.490   .     S
C3094  C3095   1.481   .     S
C3097  C3100   1.490   .     S
C3098  C3099   1.481   .     S
N3101  Co3181  1.980   .     S
N3101  C3103   1.327   .     S
N3101  N1951   1.357   1_565 S
N3102  C3105   1.335   .     S
C3103  H3104   0.950   .     S
C3103  C1986   1.379   1_565 S
C3105  C3185   1.374   .     S
C3105  H3106   0.950   .     S
C3107  C3188   1.372   .     S
C3107  H3108   0.949   .     S
C3107  C3109   1.372   .     S
C3109  C3187   1.375   .     S
C3109  H3110   0.949   .     S
N3111  Co3182  1.980   .     S
N3111  C3113   1.327   .     S
N3112  C3115   1.335   .     S
N3112  Co2883  1.976   1_655 S
N3112  N1942   1.349   1_565 S
C3113  H3114   0.950   .     S
C3113  C3190   1.379   .     S
C3115  C1989   1.374   1_565 S
C3115  H3116   0.950   .     S
C3117  C1992   1.372   1_565 S
C3117  H3118   0.949   .     S
C3117  C3119   1.372   .     S
C3119  C1991   1.375   1_565 S
C3119  H3120   0.949   .     S
N3121  Co3183  1.980   .     S
N3121  C3123   1.327   .     S
N3122  C3125   1.335   .     S
N3122  N2862   1.349   1_655 S
C3123  H3124   0.950   .     S
C3123  C3194   1.379   .     S
C3125  C2893   1.374   1_655 S
C3125  H3126   0.950   .     S
C3127  C2896   1.372   1_655 S
C3127  H3128   0.949   .     S
C3127  C3129   1.372   .     S
C3129  C2895   1.375   1_655 S
C3129  H3130   0.949   .     S
N3131  Co3184  1.980   .     S
N3131  C3133   1.327   .     S
N3131  N1271   1.357   1_655 S
N3132  C3135   1.335   .     S
N3132  Co1982  1.976   1_565 S
N3132  N4672   1.349   .     S
C3133  H3134   0.950   .     S
C3133  C2898   1.379   1_655 S
C3135  C4797   1.374   .     S
C3135  H3136   0.950   .     S
C3137  C4800   1.372   .     S
C3137  H3138   0.949   .     S
C3137  C3139   1.372   .     S
C3139  C4799   1.375   .     S
C3139  H3140   0.949   .     S
N3141  Co3183  1.980   .     S
N3141  C3143   1.327   .     S
N3141  N1911   1.357   1_565 S
N3142  C3145   1.335   .     S
N3142  Co2882  1.976   1_655 S
C3143  H3144   0.950   .     S
C3143  C1990   1.379   1_565 S
C3145  C3189   1.374   .     S
C3145  H3146   0.950   .     S
C3147  C3192   1.372   .     S
C3147  H3148   0.949   .     S
C3147  C3149   1.372   .     S
C3149  C3191   1.375   .     S
C3149  H3150   0.949   .     S
N3151  Co3184  1.980   .     S
N3151  C3153   1.327   .     S
N3152  C3155   1.335   .     S
N3152  N1902   1.349   1_565 S
C3153  H3154   0.950   .     S
C3153  C3186   1.379   .     S
C3155  C1985   1.374   1_565 S
C3155  H3156   0.950   .     S
C3157  C1988   1.372   1_565 S
C3157  H3158   0.949   .     S
C3157  C3159   1.372   .     S
C3159  C1987   1.375   1_565 S
C3159  H3160   0.949   .     S
N3161  Co3181  1.980   .     S
N3161  C3163   1.327   .     S
N3161  N2821   1.357   1_655 S
N3162  C3165   1.335   .     S
C3163  H3164   0.950   .     S
C3163  C2894   1.379   1_655 S
C3165  C3193   1.374   .     S
C3165  H3166   0.950   .     S
C3167  C3196   1.372   .     S
C3167  H3168   0.949   .     S
C3167  C3169   1.372   .     S
C3169  C3195   1.375   .     S
C3169  H3170   0.949   .     S
N3171  Co3182  1.980   .     S
N3171  C3173   1.327   .     S
N3171  N4631   1.357   .     S
N3172  C3175   1.335   .     S
N3172  Co1984  1.976   1_565 S
N3172  N1232   1.349   1_655 S
C3173  H3174   0.950   .     S
C3173  C4798   1.379   .     S
C3175  C2897   1.374   1_655 S
C3175  H3176   0.950   .     S
C3177  C2900   1.372   1_655 S
C3177  H3178   0.949   .     S
C3177  C3179   1.372   .     S
C3179  C2899   1.375   1_655 S
C3179  H3180   0.949   .     S
Co3181 N1922   1.976   1_565 S
Co3181 N2852   1.976   1_655 S
Co3183 N1962   1.976   1_565 S
Co3184 N2802   1.976   1_655 S
C3185  C3188   1.490   .     S
C3186  C3187   1.481   .     S
C3189  C3192   1.490   .     S
C3190  C3191   1.481   .     S
C3193  C3196   1.490   .     S
C3194  C3195   1.481   .     S
C3197  C3200   1.490   .     S
C3198  C3199   1.481   .     S
N3201  Co3281  1.980   .     S
N3201  C3203   1.327   .     S
N3201  N3651   1.357   .     S
N3202  C3205   1.335   .     S
N3202  Co3584  1.976   1_455 S
N3202  N4452   1.349   1_545 S
C3203  H3204   0.950   .     S
C3203  C3686   1.379   .     S
C3205  C3285   1.374   .     S
C3205  H3206   0.950   .     S
C3207  C3288   1.372   .     S
C3207  H3208   0.949   .     S
C3207  C3209   1.372   .     S
C3209  C3287   1.375   .     S
C3209  H3210   0.949   .     S
N3211  Co3282  1.980   .     S
N3211  C3213   1.327   .     S
N3211  N4441   1.357   1_545 S
N3212  C3215   1.335   .     S
N3212  Co3383  1.976   .     S
N3212  N3642   1.349   .     S
C3213  H3214   0.950   .     S
C3213  C3290   1.379   .     S
C3215  C3689   1.374   .     S
C3215  H3216   0.950   .     S
C3217  C3692   1.372   .     S
C3217  H3218   0.949   .     S
C3217  C3219   1.372   .     S
C3219  C3691   1.375   .     S
C3219  H3220   0.949   .     S
N3221  Co3283  1.980   .     S
N3221  C3223   1.327   .     S
N3221  N3561   1.357   1_455 S
N3222  C3225   1.335   .     S
N3222  Co4481  1.976   1_545 S
N3222  N3362   1.349   .     S
C3223  H3224   0.950   .     S
C3223  C3294   1.379   .     S
C3225  C3393   1.374   .     S
C3225  H3226   0.950   .     S
C3227  C3396   1.372   .     S
C3227  H3228   0.949   .     S
C3227  C3229   1.372   .     S
C3229  C3395   1.375   .     S
C3229  H3230   0.949   .     S
N3231  Co3284  1.980   .     S
N3231  C3233   1.327   .     S
N3232  C3235   1.335   .     S
N3232  Co3682  1.976   .     S
N3232  N5172   1.349   1_455 S
C3233  H3234   0.950   .     S
C3233  C3398   1.379   .     S
C3235  C4897   1.374   .     S
C3235  H3236   0.950   .     S
C3237  C4900   1.372   .     S
C3237  H3238   0.949   .     S
C3237  C3239   1.372   .     S
C3239  C4899   1.375   .     S
C3239  H3240   0.949   .     S
N3241  Co3283  1.980   .     S
N3241  C3243   1.327   .     S
N3241  N3611   1.357   .     S
N3242  C3245   1.335   .     S
N3242  Co3382  1.976   .     S
N3242  N4412   1.349   1_545 S
C3243  H3244   0.950   .     S
C3243  C3690   1.379   .     S
C3245  C3289   1.374   .     S
C3245  H3246   0.950   .     S
C3247  C3292   1.372   .     S
C3247  H3248   0.949   .     S
C3247  C3249   1.372   .     S
C3249  C3291   1.375   .     S
C3249  H3250   0.949   .     S
N3251  Co3284  1.980   .     S
N3251  C3253   1.327   .     S
N3251  N4401   1.357   1_545 S
N3252  C3255   1.335   .     S
N3252  Co3581  1.976   1_455 S
N3252  N3602   1.349   .     S
C3253  H3254   0.950   .     S
C3253  C3286   1.379   .     S
C3255  C3685   1.374   .     S
C3255  H3256   0.950   .     S
C3257  C3688   1.372   .     S
C3257  H3258   0.949   .     S
C3257  C3259   1.372   .     S
C3259  C3687   1.375   .     S
C3259  H3260   0.949   .     S
N3261  Co3281  1.980   .     S
N3261  C3263   1.327   .     S
N3261  N3321   1.357   .     S
N3262  C3265   1.335   .     S
N3262  Co4483  1.976   1_545 S
N3262  N3522   1.349   1_455 S
C3263  H3264   0.950   .     S
C3263  C3394   1.379   .     S
C3265  C3293   1.374   .     S
C3265  H3266   0.950   .     S
C3267  C3296   1.372   .     S
C3267  H3268   0.949   .     S
C3267  C3269   1.372   .     S
C3269  C3295   1.375   .     S
C3269  H3270   0.949   .     S
N3271  Co3282  1.980   .     S
N3271  C3273   1.327   .     S
N3271  N5131   1.357   1_455 S
N3272  C3275   1.335   .     S
N3272  Co3684  1.976   .     S
C3273  H3274   0.950   .     S
C3273  C4898   1.379   .     S
C3275  C3397   1.374   .     S
C3275  H3276   0.950   .     S
C3277  C3400   1.372   .     S
C3277  H3278   0.949   .     S
C3277  C3279   1.372   .     S
C3279  C3399   1.375   .     S
C3279  H3280   0.949   .     S
Co3281 N3622   1.976   .     S
Co3281 N3352   1.976   .     S
Co3282 N4432   1.976   1_545 S
Co3282 N3542   1.976   1_455 S
Co3283 N3512   1.976   1_455 S
Co3283 N3662   1.976   .     S
Co3284 N3302   1.976   .     S
Co3284 N4472   1.976   1_545 S
C3285  C4455   1.374   1_545 S
C3285  C3288   1.490   .     S
C3286  C4403   1.379   1_545 S
C3286  C3287   1.481   .     S
C3287  C4459   1.375   1_545 S
C3288  C4457   1.372   1_545 S
C3289  C4415   1.374   1_545 S
C3289  C3292   1.490   .     S
C3290  C4443   1.379   1_545 S
C3290  C3291   1.481   .     S
C3291  C4419   1.375   1_545 S
C3292  C4417   1.372   1_545 S
C3293  C3525   1.374   1_455 S
C3293  C3296   1.490   .     S
C3294  C3563   1.379   1_455 S
C3294  C3295   1.481   .     S
C3295  C3529   1.375   1_455 S
C3296  C3527   1.372   1_455 S
C3297  C3575   1.374   1_455 S
C3297  C3300   1.490   .     S
C3298  C3533   1.379   1_455 S
C3298  C3299   1.481   .     S
C3299  C3579   1.375   1_455 S
C3300  C3577   1.372   1_455 S
N3301  Co3381  1.980   .     S
N3301  C3303   1.327   .     S
N3301  N3751   1.357   .     S
N3302  C3305   1.335   .     S
N3302  N4552   1.349   1_545 S
C3303  H3304   0.950   .     S
C3303  C3786   1.379   .     S
C3305  C3385   1.374   .     S
C3305  H3306   0.950   .     S
C3307  C3388   1.372   .     S
C3307  H3308   0.949   .     S
C3307  C3309   1.372   .     S
C3309  C3387   1.375   .     S
C3309  H3310   0.949   .     S
N3311  Co3382  1.980   .     S
N3311  C3313   1.327   .     S
N3311  N4541   1.357   1_545 S
N3312  C3315   1.335   .     S
N3312  Co3483  1.976   .     S
N3312  N3742   1.349   .     S
C3313  H3314   0.950   .     S
C3313  C3390   1.379   .     S
C3315  C3789   1.374   .     S
C3315  H3316   0.950   .     S
C3317  C3792   1.372   .     S
C3317  H3318   0.949   .     S
C3317  C3319   1.372   .     S
C3319  C3791   1.375   .     S
C3319  H3320   0.949   .     S
N3321  Co3383  1.980   .     S
N3321  C3323   1.327   .     S
N3322  C3325   1.335   .     S
N3322  Co4581  1.976   1_545 S
N3322  N3462   1.349   .     S
C3323  H3324   0.950   .     S
C3323  C3394   1.379   .     S
C3325  C3493   1.374   .     S
C3325  H3326   0.950   .     S
C3327  C3496   1.372   .     S
C3327  H3328   0.949   .     S
C3327  C3329   1.372   .     S
C3329  C3495   1.375   .     S
C3329  H3330   0.949   .     S
N3331  Co3384  1.980   .     S
N3331  C3333   1.327   .     S
N3332  C3335   1.335   .     S
N3332  Co3782  1.976   .     S
N3332  N4872   1.349   .     S
C3333  H3334   0.950   .     S
C3333  C3498   1.379   .     S
C3335  C4997   1.374   .     S
C3335  H3336   0.950   .     S
C3337  C5000   1.372   .     S
C3337  H3338   0.949   .     S
C3337  C3339   1.372   .     S
C3339  C4999   1.375   .     S
C3339  H3340   0.949   .     S
N3341  Co3383  1.980   .     S
N3341  C3343   1.327   .     S
N3341  N3711   1.357   .     S
N3342  C3345   1.335   .     S
N3342  Co3482  1.976   .     S
N3342  N4512   1.349   1_545 S
C3343  H3344   0.950   .     S
C3343  C3790   1.379   .     S
C3345  C3389   1.374   .     S
C3345  H3346   0.950   .     S
C3347  C3392   1.372   .     S
C3347  H3348   0.949   .     S
C3347  C3349   1.372   .     S
C3349  C3391   1.375   .     S
C3349  H3350   0.949   .     S
N3351  Co3384  1.980   .     S
N3351  C3353   1.327   .     S
N3351  N4501   1.357   1_545 S
N3352  C3355   1.335   .     S
N3352  N3702   1.349   .     S
C3353  H3354   0.950   .     S
C3353  C3386   1.379   .     S
C3355  C3785   1.374   .     S
C3355  H3356   0.950   .     S
C3357  C3788   1.372   .     S
C3357  H3358   0.949   .     S
C3357  C3359   1.372   .     S
C3359  C3787   1.375   .     S
C3359  H3360   0.949   .     S
N3361  Co3381  1.980   .     S
N3361  C3363   1.327   .     S
N3361  N3421   1.357   .     S
N3362  C3365   1.335   .     S
N3362  Co4583  1.976   1_545 S
C3363  H3364   0.950   .     S
C3363  C3494   1.379   .     S
C3365  C3393   1.374   .     S
C3365  H3366   0.950   .     S
C3367  C3396   1.372   .     S
C3367  H3368   0.949   .     S
C3367  C3369   1.372   .     S
C3369  C3395   1.375   .     S
C3369  H3370   0.949   .     S
N3371  Co3382  1.980   .     S
N3371  C3373   1.327   .     S
N3371  N4831   1.357   .     S
N3372  C3375   1.335   .     S
N3372  Co3784  1.976   .     S
C3373  H3374   0.950   .     S
C3373  C4998   1.379   .     S
C3375  C3497   1.374   .     S
C3375  H3376   0.950   .     S
C3377  C3500   1.372   .     S
C3377  H3378   0.949   .     S
C3377  C3379   1.372   .     S
C3379  C3499   1.375   .     S
C3379  H3380   0.949   .     S
Co3381 N3722   1.976   .     S
Co3381 N3452   1.976   .     S
Co3382 N4532   1.976   1_545 S
Co3383 N3762   1.976   .     S
Co3384 N3402   1.976   .     S
Co3384 N4572   1.976   1_545 S
C3385  C4555   1.374   1_545 S
C3385  C3388   1.490   .     S
C3386  C4503   1.379   1_545 S
C3386  C3387   1.481   .     S
C3387  C4559   1.375   1_545 S
C3388  C4557   1.372   1_545 S
C3389  C4515   1.374   1_545 S
C3389  C3392   1.490   .     S
C3390  C4543   1.379   1_545 S
C3390  C3391   1.481   .     S
C3391  C4519   1.375   1_545 S
C3392  C4517   1.372   1_545 S
C3393  C3396   1.490   .     S
C3394  C3395   1.481   .     S
C3397  C3400   1.490   .     S
C3398  C3399   1.481   .     S
N3401  Co3481  1.980   .     S
N3401  C3403   1.327   .     S
N3401  N3851   1.357   .     S
N3402  C3405   1.335   .     S
N3402  N4652   1.349   1_545 S
C3403  H3404   0.950   .     S
C3403  C3886   1.379   .     S
C3405  C3485   1.374   .     S
C3405  H3406   0.950   .     S
C3407  C3488   1.372   .     S
C3407  H3408   0.949   .     S
C3407  C3409   1.372   .     S
C3409  C3487   1.375   .     S
C3409  H3410   0.949   .     S
N3411  Co3482  1.980   .     S
N3411  C3413   1.327   .     S
N3411  N4641   1.357   1_545 S
N3412  C3415   1.335   .     S
N3412  Co3583  1.976   .     S
N3412  N3842   1.349   .     S
C3413  H3414   0.950   .     S
C3413  C3490   1.379   .     S
C3415  C3889   1.374   .     S
C3415  H3416   0.950   .     S
C3417  C3892   1.372   .     S
C3417  H3418   0.949   .     S
C3417  C3419   1.372   .     S
C3419  C3891   1.375   .     S
C3419  H3420   0.949   .     S
N3421  Co3483  1.980   .     S
N3421  C3423   1.327   .     S
N3422  C3425   1.335   .     S
N3422  Co4681  1.976   1_545 S
N3422  N3562   1.349   .     S
C3423  H3424   0.950   .     S
C3423  C3494   1.379   .     S
C3425  C3593   1.374   .     S
C3425  H3426   0.950   .     S
C3427  C3596   1.372   .     S
C3427  H3428   0.949   .     S
C3427  C3429   1.372   .     S
C3429  C3595   1.375   .     S
C3429  H3430   0.949   .     S
N3431  Co3484  1.980   .     S
N3431  C3433   1.327   .     S
N3432  C3435   1.335   .     S
N3432  Co3882  1.976   .     S
N3432  N4972   1.349   .     S
C3433  H3434   0.950   .     S
C3433  C3598   1.379   .     S
C3435  C5097   1.374   .     S
C3435  H3436   0.950   .     S
C3437  C5100   1.372   .     S
C3437  H3438   0.949   .     S
C3437  C3439   1.372   .     S
C3439  C5099   1.375   .     S
C3439  H3440   0.949   .     S
N3441  Co3483  1.980   .     S
N3441  C3443   1.327   .     S
N3441  N3811   1.357   .     S
N3442  C3445   1.335   .     S
N3442  Co3582  1.976   .     S
N3442  N4612   1.349   1_545 S
C3443  H3444   0.950   .     S
C3443  C3890   1.379   .     S
C3445  C3489   1.374   .     S
C3445  H3446   0.950   .     S
C3447  C3492   1.372   .     S
C3447  H3448   0.949   .     S
C3447  C3449   1.372   .     S
C3449  C3491   1.375   .     S
C3449  H3450   0.949   .     S
N3451  Co3484  1.980   .     S
N3451  C3453   1.327   .     S
N3451  N4601   1.357   1_545 S
N3452  C3455   1.335   .     S
N3452  N3802   1.349   .     S
C3453  H3454   0.950   .     S
C3453  C3486   1.379   .     S
C3455  C3885   1.374   .     S
C3455  H3456   0.950   .     S
C3457  C3888   1.372   .     S
C3457  H3458   0.949   .     S
C3457  C3459   1.372   .     S
C3459  C3887   1.375   .     S
C3459  H3460   0.949   .     S
N3461  Co3481  1.980   .     S
N3461  C3463   1.327   .     S
N3461  N3521   1.357   .     S
N3462  C3465   1.335   .     S
N3462  Co4683  1.976   1_545 S
C3463  H3464   0.950   .     S
C3463  C3594   1.379   .     S
C3465  C3493   1.374   .     S
C3465  H3466   0.950   .     S
C3467  C3496   1.372   .     S
C3467  H3468   0.949   .     S
C3467  C3469   1.372   .     S
C3469  C3495   1.375   .     S
C3469  H3470   0.949   .     S
N3471  Co3482  1.980   .     S
N3471  C3473   1.327   .     S
N3471  N4931   1.357   .     S
N3472  C3475   1.335   .     S
N3472  Co3884  1.976   .     S
C3473  H3474   0.950   .     S
C3473  C5098   1.379   .     S
C3475  C3597   1.374   .     S
C3475  H3476   0.950   .     S
C3477  C3600   1.372   .     S
C3477  H3478   0.949   .     S
C3477  C3479   1.372   .     S
C3479  C3599   1.375   .     S
C3479  H3480   0.949   .     S
Co3481 N3822   1.976   .     S
Co3481 N3552   1.976   .     S
Co3482 N4632   1.976   1_545 S
Co3483 N3862   1.976   .     S
Co3484 N3502   1.976   .     S
Co3484 N4672   1.976   1_545 S
C3485  C4655   1.374   1_545 S
C3485  C3488   1.490   .     S
C3486  C4603   1.379   1_545 S
C3486  C3487   1.481   .     S
C3487  C4659   1.375   1_545 S
C3488  C4657   1.372   1_545 S
C3489  C4615   1.374   1_545 S
C3489  C3492   1.490   .     S
C3490  C4643   1.379   1_545 S
C3490  C3491   1.481   .     S
C3491  C4619   1.375   1_545 S
C3492  C4617   1.372   1_545 S
C3493  C3496   1.490   .     S
C3494  C3495   1.481   .     S
C3497  C3500   1.490   .     S
C3498  C3499   1.481   .     S
N3501  Co3581  1.980   .     S
N3501  C3503   1.327   .     S
N3501  N3951   1.357   .     S
N3502  C3505   1.335   .     S
N3502  N4752   1.349   1_545 S
C3503  H3504   0.950   .     S
C3503  C3986   1.379   .     S
C3505  C3585   1.374   .     S
C3505  H3506   0.950   .     S
C3507  C3588   1.372   .     S
C3507  H3508   0.949   .     S
C3507  C3509   1.372   .     S
C3509  C3587   1.375   .     S
C3509  H3510   0.949   .     S
N3511  Co3582  1.980   .     S
N3511  C3513   1.327   .     S
N3511  N4741   1.357   1_545 S
N3512  C3515   1.335   .     S
N3512  Co3283  1.976   1_655 S
N3512  N3942   1.349   .     S
C3513  H3514   0.950   .     S
C3513  C3590   1.379   .     S
C3515  C3989   1.374   .     S
C3515  H3516   0.950   .     S
C3517  C3992   1.372   .     S
C3517  H3518   0.949   .     S
C3517  C3519   1.372   .     S
C3519  C3991   1.375   .     S
C3519  H3520   0.949   .     S
N3521  Co3583  1.980   .     S
N3521  C3523   1.327   .     S
N3522  C3525   1.335   .     S
N3522  Co4781  1.976   1_545 S
N3522  N3262   1.349   1_655 S
C3523  H3524   0.950   .     S
C3523  C3594   1.379   .     S
C3525  C3293   1.374   1_655 S
C3525  H3526   0.950   .     S
C3527  C3296   1.372   1_655 S
C3527  H3528   0.949   .     S
C3527  C3529   1.372   .     S
C3529  C3295   1.375   1_655 S
C3529  H3530   0.949   .     S
N3531  Co3584  1.980   .     S
N3531  C3533   1.327   .     S
N3531  N1671   1.357   1_655 S
N3532  C3535   1.335   .     S
N3532  Co3982  1.976   .     S
N3532  N5072   1.349   .     S
C3533  H3534   0.950   .     S
C3533  C3298   1.379   1_655 S
C3535  C5197   1.374   .     S
C3535  H3536   0.950   .     S
C3537  C5200   1.372   .     S
C3537  H3538   0.949   .     S
C3537  C3539   1.372   .     S
C3539  C5199   1.375   .     S
C3539  H3540   0.949   .     S
N3541  Co3583  1.980   .     S
N3541  C3543   1.327   .     S
N3541  N3911   1.357   .     S
N3542  C3545   1.335   .     S
N3542  Co3282  1.976   1_655 S
N3542  N4712   1.349   1_545 S
C3543  H3544   0.950   .     S
C3543  C3990   1.379   .     S
C3545  C3589   1.374   .     S
C3545  H3546   0.950   .     S
C3547  C3592   1.372   .     S
C3547  H3548   0.949   .     S
C3547  C3549   1.372   .     S
C3549  C3591   1.375   .     S
C3549  H3550   0.949   .     S
N3551  Co3584  1.980   .     S
N3551  C3553   1.327   .     S
N3551  N4701   1.357   1_545 S
N3552  C3555   1.335   .     S
N3552  N3902   1.349   .     S
C3553  H3554   0.950   .     S
C3553  C3586   1.379   .     S
C3555  C3985   1.374   .     S
C3555  H3556   0.950   .     S
C3557  C3988   1.372   .     S
C3557  H3558   0.949   .     S
C3557  C3559   1.372   .     S
C3559  C3987   1.375   .     S
C3559  H3560   0.949   .     S
N3561  Co3581  1.980   .     S
N3561  C3563   1.327   .     S
N3561  N3221   1.357   1_655 S
N3562  C3565   1.335   .     S
N3562  Co4783  1.976   1_545 S
C3563  H3564   0.950   .     S
C3563  C3294   1.379   1_655 S
C3565  C3593   1.374   .     S
C3565  H3566   0.950   .     S
C3567  C3596   1.372   .     S
C3567  H3568   0.949   .     S
C3567  C3569   1.372   .     S
C3569  C3595   1.375   .     S
C3569  H3570   0.949   .     S
N3571  Co3582  1.980   .     S
N3571  C3573   1.327   .     S
N3571  N5031   1.357   .     S
N3572  C3575   1.335   .     S
N3572  Co3984  1.976   .     S
N3572  N1632   1.349   1_655 S
C3573  H3574   0.950   .     S
C3573  C5198   1.379   .     S
C3575  C3297   1.374   1_655 S
C3575  H3576   0.950   .     S
C3577  C3300   1.372   1_655 S
C3577  H3578   0.949   .     S
C3577  C3579   1.372   .     S
C3579  C3299   1.375   1_655 S
C3579  H3580   0.949   .     S
Co3581 N3922   1.976   .     S
Co3581 N3252   1.976   1_655 S
Co3582 N4732   1.976   1_545 S
Co3583 N3962   1.976   .     S
Co3584 N3202   1.976   1_655 S
Co3584 N4772   1.976   1_545 S
C3585  C4755   1.374   1_545 S
C3585  C3588   1.490   .     S
C3586  C4703   1.379   1_545 S
C3586  C3587   1.481   .     S
C3587  C4759   1.375   1_545 S
C3588  C4757   1.372   1_545 S
C3589  C4715   1.374   1_545 S
C3589  C3592   1.490   .     S
C3590  C4743   1.379   1_545 S
C3590  C3591   1.481   .     S
C3591  C4719   1.375   1_545 S
C3592  C4717   1.372   1_545 S
C3593  C3596   1.490   .     S
C3594  C3595   1.481   .     S
C3597  C3600   1.490   .     S
C3598  C3599   1.481   .     S
N3601  Co3681  1.980   .     S
N3601  C3603   1.327   .     S
N3601  N4051   1.357   .     S
N3602  C3605   1.335   .     S
N3602  Co3984  1.976   1_455 S
C3603  H3604   0.950   .     S
C3603  C4086   1.379   .     S
C3605  C3685   1.374   .     S
C3605  H3606   0.950   .     S
C3607  C3688   1.372   .     S
C3607  H3608   0.949   .     S
C3607  C3609   1.372   .     S
C3609  C3687   1.375   .     S
C3609  H3610   0.949   .     S
N3611  Co3682  1.980   .     S
N3611  C3613   1.327   .     S
N3612  C3615   1.335   .     S
N3612  Co3783  1.976   .     S
N3612  N4042   1.349   .     S
C3613  H3614   0.950   .     S
C3613  C3690   1.379   .     S
C3615  C4089   1.374   .     S
C3615  H3616   0.950   .     S
C3617  C4092   1.372   .     S
C3617  H3618   0.949   .     S
C3617  C3619   1.372   .     S
C3619  C4091   1.375   .     S
C3619  H3620   0.949   .     S
N3621  Co3683  1.980   .     S
N3621  C3623   1.327   .     S
N3621  N3961   1.357   1_455 S
N3622  C3625   1.335   .     S
N3622  N3762   1.349   .     S
C3623  H3624   0.950   .     S
C3623  C3694   1.379   .     S
C3625  C3793   1.374   .     S
C3625  H3626   0.950   .     S
C3627  C3796   1.372   .     S
C3627  H3628   0.949   .     S
C3627  C3629   1.372   .     S
C3629  C3795   1.375   .     S
C3629  H3630   0.949   .     S
N3631  Co3684  1.980   .     S
N3631  C3633   1.327   .     S
N3632  C3635   1.335   .     S
N3632  Co4082  1.976   .     S
N3632  N5572   1.349   1_455 S
C3633  H3634   0.950   .     S
C3633  C3798   1.379   .     S
C3635  C5297   1.374   .     S
C3635  H3636   0.950   .     S
C3637  C5300   1.372   .     S
C3637  H3638   0.949   .     S
C3637  C3639   1.372   .     S
C3639  C5299   1.375   .     S
C3639  H3640   0.949   .     S
N3641  Co3683  1.980   .     S
N3641  C3643   1.327   .     S
N3641  N4011   1.357   .     S
N3642  C3645   1.335   .     S
N3642  Co3782  1.976   .     S
C3643  H3644   0.950   .     S
C3643  C4090   1.379   .     S
C3645  C3689   1.374   .     S
C3645  H3646   0.950   .     S
C3647  C3692   1.372   .     S
C3647  H3648   0.949   .     S
C3647  C3649   1.372   .     S
C3649  C3691   1.375   .     S
C3649  H3650   0.949   .     S
N3651  Co3684  1.980   .     S
N3651  C3653   1.327   .     S
N3652  C3655   1.335   .     S
N3652  Co3981  1.976   1_455 S
N3652  N4002   1.349   .     S
C3653  H3654   0.950   .     S
C3653  C3686   1.379   .     S
C3655  C4085   1.374   .     S
C3655  H3656   0.950   .     S
C3657  C4088   1.372   .     S
C3657  H3658   0.949   .     S
C3657  C3659   1.372   .     S
C3659  C4087   1.375   .     S
C3659  H3660   0.949   .     S
N3661  Co3681  1.980   .     S
N3661  C3663   1.327   .     S
N3661  N3721   1.357   .     S
N3662  C3665   1.335   .     S
N3662  N3922   1.349   1_455 S
C3663  H3664   0.950   .     S
C3663  C3794   1.379   .     S
C3665  C3693   1.374   .     S
C3665  H3666   0.950   .     S
C3667  C3696   1.372   .     S
C3667  H3668   0.949   .     S
C3667  C3669   1.372   .     S
C3669  C3695   1.375   .     S
C3669  H3670   0.949   .     S
N3671  Co3682  1.980   .     S
N3671  C3673   1.327   .     S
N3671  N5531   1.357   1_455 S
N3672  C3675   1.335   .     S
N3672  Co4084  1.976   .     S
C3673  H3674   0.950   .     S
C3673  C5298   1.379   .     S
C3675  C3797   1.374   .     S
C3675  H3676   0.950   .     S
C3677  C3800   1.372   .     S
C3677  H3678   0.949   .     S
C3677  C3679   1.372   .     S
C3679  C3799   1.375   .     S
C3679  H3680   0.949   .     S
Co3681 N4022   1.976   .     S
Co3681 N3752   1.976   .     S
Co3682 N3942   1.976   1_455 S
Co3683 N3912   1.976   1_455 S
Co3683 N4062   1.976   .     S
Co3684 N3702   1.976   .     S
C3685  C3688   1.490   .     S
C3686  C3687   1.481   .     S
C3689  C3692   1.490   .     S
C3690  C3691   1.481   .     S
C3693  C3925   1.374   1_455 S
C3693  C3696   1.490   .     S
C3694  C3963   1.379   1_455 S
C3694  C3695   1.481   .     S
C3695  C3929   1.375   1_455 S
C3696  C3927   1.372   1_455 S
C3697  C3975   1.374   1_455 S
C3697  C3700   1.490   .     S
C3698  C3933   1.379   1_455 S
C3698  C3699   1.481   .     S
C3699  C3979   1.375   1_455 S
C3700  C3977   1.372   1_455 S
N3701  Co3781  1.980   .     S
N3701  C3703   1.327   .     S
N3701  N4151   1.357   .     S
N3702  C3705   1.335   .     S
C3703  H3704   0.950   .     S
C3703  C4186   1.379   .     S
C3705  C3785   1.374   .     S
C3705  H3706   0.950   .     S
C3707  C3788   1.372   .     S
C3707  H3708   0.949   .     S
C3707  C3709   1.372   .     S
C3709  C3787   1.375   .     S
C3709  H3710   0.949   .     S
N3711  Co3782  1.980   .     S
N3711  C3713   1.327   .     S
N3712  C3715   1.335   .     S
N3712  Co3883  1.976   .     S
N3712  N4142   1.349   .     S
C3713  H3714   0.950   .     S
C3713  C3790   1.379   .     S
C3715  C4189   1.374   .     S
C3715  H3716   0.950   .     S
C3717  C4192   1.372   .     S
C3717  H3718   0.949   .     S
C3717  C3719   1.372   .     S
C3719  C4191   1.375   .     S
C3719  H3720   0.949   .     S
N3721  Co3783  1.980   .     S
N3721  C3723   1.327   .     S
N3722  C3725   1.335   .     S
N3722  N3862   1.349   .     S
C3723  H3724   0.950   .     S
C3723  C3794   1.379   .     S
C3725  C3893   1.374   .     S
C3725  H3726   0.950   .     S
C3727  C3896   1.372   .     S
C3727  H3728   0.949   .     S
C3727  C3729   1.372   .     S
C3729  C3895   1.375   .     S
C3729  H3730   0.949   .     S
N3731  Co3784  1.980   .     S
N3731  C3733   1.327   .     S
N3732  C3735   1.335   .     S
N3732  Co4182  1.976   .     S
N3732  N5272   1.349   .     S
C3733  H3734   0.950   .     S
C3733  C3898   1.379   .     S
C3735  C5397   1.374   .     S
C3735  H3736   0.950   .     S
C3737  C5400   1.372   .     S
C3737  H3738   0.949   .     S
C3737  C3739   1.372   .     S
C3739  C5399   1.375   .     S
C3739  H3740   0.949   .     S
N3741  Co3783  1.980   .     S
N3741  C3743   1.327   .     S
N3741  N4111   1.357   .     S
N3742  C3745   1.335   .     S
N3742  Co3882  1.976   .     S
C3743  H3744   0.950   .     S
C3743  C4190   1.379   .     S
C3745  C3789   1.374   .     S
C3745  H3746   0.950   .     S
C3747  C3792   1.372   .     S
C3747  H3748   0.949   .     S
C3747  C3749   1.372   .     S
C3749  C3791   1.375   .     S
C3749  H3750   0.949   .     S
N3751  Co3784  1.980   .     S
N3751  C3753   1.327   .     S
N3752  C3755   1.335   .     S
N3752  N4102   1.349   .     S
C3753  H3754   0.950   .     S
C3753  C3786   1.379   .     S
C3755  C4185   1.374   .     S
C3755  H3756   0.950   .     S
C3757  C4188   1.372   .     S
C3757  H3758   0.949   .     S
C3757  C3759   1.372   .     S
C3759  C4187   1.375   .     S
C3759  H3760   0.949   .     S
N3761  Co3781  1.980   .     S
N3761  C3763   1.327   .     S
N3761  N3821   1.357   .     S
N3762  C3765   1.335   .     S
C3763  H3764   0.950   .     S
C3763  C3894   1.379   .     S
C3765  C3793   1.374   .     S
C3765  H3766   0.950   .     S
C3767  C3796   1.372   .     S
C3767  H3768   0.949   .     S
C3767  C3769   1.372   .     S
C3769  C3795   1.375   .     S
C3769  H3770   0.949   .     S
N3771  Co3782  1.980   .     S
N3771  C3773   1.327   .     S
N3771  N5231   1.357   .     S
N3772  C3775   1.335   .     S
N3772  Co4184  1.976   .     S
C3773  H3774   0.950   .     S
C3773  C5398   1.379   .     S
C3775  C3897   1.374   .     S
C3775  H3776   0.950   .     S
C3777  C3900   1.372   .     S
C3777  H3778   0.949   .     S
C3777  C3779   1.372   .     S
C3779  C3899   1.375   .     S
C3779  H3780   0.949   .     S
Co3781 N4122   1.976   .     S
Co3781 N3852   1.976   .     S
Co3783 N4162   1.976   .     S
Co3784 N3802   1.976   .     S
C3785  C3788   1.490   .     S
C3786  C3787   1.481   .     S
C3789  C3792   1.490   .     S
C3790  C3791   1.481   .     S
C3793  C3796   1.490   .     S
C3794  C3795   1.481   .     S
C3797  C3800   1.490   .     S
C3798  C3799   1.481   .     S
N3801  Co3881  1.980   .     S
N3801  C3803   1.327   .     S
N3801  N4251   1.357   .     S
N3802  C3805   1.335   .     S
C3803  H3804   0.950   .     S
C3803  C4286   1.379   .     S
C3805  C3885   1.374   .     S
C3805  H3806   0.950   .     S
C3807  C3888   1.372   .     S
C3807  H3808   0.949   .     S
C3807  C3809   1.372   .     S
C3809  C3887   1.375   .     S
C3809  H3810   0.949   .     S
N3811  Co3882  1.980   .     S
N3811  C3813   1.327   .     S
N3812  C3815   1.335   .     S
N3812  Co3983  1.976   .     S
N3812  N4242   1.349   .     S
C3813  H3814   0.950   .     S
C3813  C3890   1.379   .     S
C3815  C4289   1.374   .     S
C3815  H3816   0.950   .     S
C3817  C4292   1.372   .     S
C3817  H3818   0.949   .     S
C3817  C3819   1.372   .     S
C3819  C4291   1.375   .     S
C3819  H3820   0.949   .     S
N3821  Co3883  1.980   .     S
N3821  C3823   1.327   .     S
N3822  C3825   1.335   .     S
N3822  N3962   1.349   .     S
C3823  H3824   0.950   .     S
C3823  C3894   1.379   .     S
C3825  C3993   1.374   .     S
C3825  H3826   0.950   .     S
C3827  C3996   1.372   .     S
C3827  H3828   0.949   .     S
C3827  C3829   1.372   .     S
C3829  C3995   1.375   .     S
C3829  H3830   0.949   .     S
N3831  Co3884  1.980   .     S
N3831  C3833   1.327   .     S
N3832  C3835   1.335   .     S
N3832  Co4282  1.976   .     S
N3832  N5372   1.349   .     S
C3833  H3834   0.950   .     S
C3833  C3998   1.379   .     S
C3835  C5497   1.374   .     S
C3835  H3836   0.950   .     S
C3837  C5500   1.372   .     S
C3837  H3838   0.949   .     S
C3837  C3839   1.372   .     S
C3839  C5499   1.375   .     S
C3839  H3840   0.949   .     S
N3841  Co3883  1.980   .     S
N3841  C3843   1.327   .     S
N3841  N4211   1.357   .     S
N3842  C3845   1.335   .     S
N3842  Co3982  1.976   .     S
C3843  H3844   0.950   .     S
C3843  C4290   1.379   .     S
C3845  C3889   1.374   .     S
C3845  H3846   0.950   .     S
C3847  C3892   1.372   .     S
C3847  H3848   0.949   .     S
C3847  C3849   1.372   .     S
C3849  C3891   1.375   .     S
C3849  H3850   0.949   .     S
N3851  Co3884  1.980   .     S
N3851  C3853   1.327   .     S
N3852  C3855   1.335   .     S
N3852  N4202   1.349   .     S
C3853  H3854   0.950   .     S
C3853  C3886   1.379   .     S
C3855  C4285   1.374   .     S
C3855  H3856   0.950   .     S
C3857  C4288   1.372   .     S
C3857  H3858   0.949   .     S
C3857  C3859   1.372   .     S
C3859  C4287   1.375   .     S
C3859  H3860   0.949   .     S
N3861  Co3881  1.980   .     S
N3861  C3863   1.327   .     S
N3861  N3921   1.357   .     S
N3862  C3865   1.335   .     S
C3863  H3864   0.950   .     S
C3863  C3994   1.379   .     S
C3865  C3893   1.374   .     S
C3865  H3866   0.950   .     S
C3867  C3896   1.372   .     S
C3867  H3868   0.949   .     S
C3867  C3869   1.372   .     S
C3869  C3895   1.375   .     S
C3869  H3870   0.949   .     S
N3871  Co3882  1.980   .     S
N3871  C3873   1.327   .     S
N3871  N5331   1.357   .     S
N3872  C3875   1.335   .     S
N3872  Co4284  1.976   .     S
C3873  H3874   0.950   .     S
C3873  C5498   1.379   .     S
C3875  C3997   1.374   .     S
C3875  H3876   0.950   .     S
C3877  C4000   1.372   .     S
C3877  H3878   0.949   .     S
C3877  C3879   1.372   .     S
C3879  C3999   1.375   .     S
C3879  H3880   0.949   .     S
Co3881 N4222   1.976   .     S
Co3881 N3952   1.976   .     S
Co3883 N4262   1.976   .     S
Co3884 N3902   1.976   .     S
C3885  C3888   1.490   .     S
C3886  C3887   1.481   .     S
C3889  C3892   1.490   .     S
C3890  C3891   1.481   .     S
C3893  C3896   1.490   .     S
C3894  C3895   1.481   .     S
C3897  C3900   1.490   .     S
C3898  C3899   1.481   .     S
N3901  Co3981  1.980   .     S
N3901  C3903   1.327   .     S
N3901  N4351   1.357   .     S
N3902  C3905   1.335   .     S
C3903  H3904   0.950   .     S
C3903  C4386   1.379   .     S
C3905  C3985   1.374   .     S
C3905  H3906   0.950   .     S
C3907  C3988   1.372   .     S
C3907  H3908   0.949   .     S
C3907  C3909   1.372   .     S
C3909  C3987   1.375   .     S
C3909  H3910   0.949   .     S
N3911  Co3982  1.980   .     S
N3911  C3913   1.327   .     S
N3912  C3915   1.335   .     S
N3912  Co3683  1.976   1_655 S
N3912  N4342   1.349   .     S
C3913  H3914   0.950   .     S
C3913  C3990   1.379   .     S
C3915  C4389   1.374   .     S
C3915  H3916   0.950   .     S
C3917  C4392   1.372   .     S
C3917  H3918   0.949   .     S
C3917  C3919   1.372   .     S
C3919  C4391   1.375   .     S
C3919  H3920   0.949   .     S
N3921  Co3983  1.980   .     S
N3921  C3923   1.327   .     S
N3922  C3925   1.335   .     S
N3922  N3662   1.349   1_655 S
C3923  H3924   0.950   .     S
C3923  C3994   1.379   .     S
C3925  C3693   1.374   1_655 S
C3925  H3926   0.950   .     S
C3927  C3696   1.372   1_655 S
C3927  H3928   0.949   .     S
C3927  C3929   1.372   .     S
C3929  C3695   1.375   1_655 S
C3929  H3930   0.949   .     S
N3931  Co3984  1.980   .     S
N3931  C3933   1.327   .     S
N3931  N2071   1.357   1_655 S
N3932  C3935   1.335   .     S
N3932  Co4382  1.976   .     S
N3932  N5472   1.349   .     S
C3933  H3934   0.950   .     S
C3933  C3698   1.379   1_655 S
C3935  C5597   1.374   .     S
C3935  H3936   0.950   .     S
C3937  C5600   1.372   .     S
C3937  H3938   0.949   .     S
C3937  C3939   1.372   .     S
C3939  C5599   1.375   .     S
C3939  H3940   0.949   .     S
N3941  Co3983  1.980   .     S
N3941  C3943   1.327   .     S
N3941  N4311   1.357   .     S
N3942  C3945   1.335   .     S
N3942  Co3682  1.976   1_655 S
C3943  H3944   0.950   .     S
C3943  C4390   1.379   .     S
C3945  C3989   1.374   .     S
C3945  H3946   0.950   .     S
C3947  C3992   1.372   .     S
C3947  H3948   0.949   .     S
C3947  C3949   1.372   .     S
C3949  C3991   1.375   .     S
C3949  H3950   0.949   .     S
N3951  Co3984  1.980   .     S
N3951  C3953   1.327   .     S
N3952  C3955   1.335   .     S
N3952  N4302   1.349   .     S
C3953  H3954   0.950   .     S
C3953  C3986   1.379   .     S
C3955  C4385   1.374   .     S
C3955  H3956   0.950   .     S
C3957  C4388   1.372   .     S
C3957  H3958   0.949   .     S
C3957  C3959   1.372   .     S
C3959  C4387   1.375   .     S
C3959  H3960   0.949   .     S
N3961  Co3981  1.980   .     S
N3961  C3963   1.327   .     S
N3961  N3621   1.357   1_655 S
N3962  C3965   1.335   .     S
C3963  H3964   0.950   .     S
C3963  C3694   1.379   1_655 S
C3965  C3993   1.374   .     S
C3965  H3966   0.950   .     S
C3967  C3996   1.372   .     S
C3967  H3968   0.949   .     S
C3967  C3969   1.372   .     S
C3969  C3995   1.375   .     S
C3969  H3970   0.949   .     S
N3971  Co3982  1.980   .     S
N3971  C3973   1.327   .     S
N3971  N5431   1.357   .     S
N3972  C3975   1.335   .     S
N3972  Co4384  1.976   .     S
N3972  N2032   1.349   1_655 S
C3973  H3974   0.950   .     S
C3973  C5598   1.379   .     S
C3975  C3697   1.374   1_655 S
C3975  H3976   0.950   .     S
C3977  C3700   1.372   1_655 S
C3977  H3978   0.949   .     S
C3977  C3979   1.372   .     S
C3979  C3699   1.375   1_655 S
C3979  H3980   0.949   .     S
Co3981 N4322   1.976   .     S
Co3981 N3652   1.976   1_655 S
Co3983 N4362   1.976   .     S
Co3984 N3602   1.976   1_655 S
C3985  C3988   1.490   .     S
C3986  C3987   1.481   .     S
C3989  C3992   1.490   .     S
C3990  C3991   1.481   .     S
C3993  C3996   1.490   .     S
C3994  C3995   1.481   .     S
C3997  C4000   1.490   .     S
C3998  C3999   1.481   .     S
N4001  Co4081  1.980   .     S
N4001  C4003   1.327   .     S
N4001  N4451   1.357   .     S
N4002  C4005   1.335   .     S
N4002  Co4384  1.976   1_455 S
C4003  H4004   0.950   .     S
C4003  C4486   1.379   .     S
C4005  C4085   1.374   .     S
C4005  H4006   0.950   .     S
C4007  C4088   1.372   .     S
C4007  H4008   0.949   .     S
C4007  C4009   1.372   .     S
C4009  C4087   1.375   .     S
C4009  H4010   0.949   .     S
N4011  Co4082  1.980   .     S
N4011  C4013   1.327   .     S
N4012  C4015   1.335   .     S
N4012  Co4183  1.976   .     S
N4012  N4442   1.349   .     S
C4013  H4014   0.950   .     S
C4013  C4090   1.379   .     S
C4015  C4489   1.374   .     S
C4015  H4016   0.950   .     S
C4017  C4492   1.372   .     S
C4017  H4018   0.949   .     S
C4017  C4019   1.372   .     S
C4019  C4491   1.375   .     S
C4019  H4020   0.949   .     S
N4021  Co4083  1.980   .     S
N4021  C4023   1.327   .     S
N4021  N4361   1.357   1_455 S
N4022  C4025   1.335   .     S
N4022  N4162   1.349   .     S
C4023  H4024   0.950   .     S
C4023  C4094   1.379   .     S
C4025  C4193   1.374   .     S
C4025  H4026   0.950   .     S
C4027  C4196   1.372   .     S
C4027  H4028   0.949   .     S
C4027  C4029   1.372   .     S
C4029  C4195   1.375   .     S
C4029  H4030   0.949   .     S
N4031  Co4084  1.980   .     S
N4031  C4033   1.327   .     S
N4032  C4035   1.335   .     S
N4032  Co4482  1.976   .     S
N4032  N5972   1.349   1_455 S
C4033  H4034   0.950   .     S
C4033  C4198   1.379   .     S
C4035  C5697   1.374   .     S
C4035  H4036   0.950   .     S
C4037  C5700   1.372   .     S
C4037  H4038   0.949   .     S
C4037  C4039   1.372   .     S
C4039  C5699   1.375   .     S
C4039  H4040   0.949   .     S
N4041  Co4083  1.980   .     S
N4041  C4043   1.327   .     S
N4041  N4411   1.357   .     S
N4042  C4045   1.335   .     S
N4042  Co4182  1.976   .     S
C4043  H4044   0.950   .     S
C4043  C4490   1.379   .     S
C4045  C4089   1.374   .     S
C4045  H4046   0.950   .     S
C4047  C4092   1.372   .     S
C4047  H4048   0.949   .     S
C4047  C4049   1.372   .     S
C4049  C4091   1.375   .     S
C4049  H4050   0.949   .     S
N4051  Co4084  1.980   .     S
N4051  C4053   1.327   .     S
N4052  C4055   1.335   .     S
N4052  Co4381  1.976   1_455 S
N4052  N4402   1.349   .     S
C4053  H4054   0.950   .     S
C4053  C4086   1.379   .     S
C4055  C4485   1.374   .     S
C4055  H4056   0.950   .     S
C4057  C4488   1.372   .     S
C4057  H4058   0.949   .     S
C4057  C4059   1.372   .     S
C4059  C4487   1.375   .     S
C4059  H4060   0.949   .     S
N4061  Co4081  1.980   .     S
N4061  C4063   1.327   .     S
N4061  N4121   1.357   .     S
N4062  C4065   1.335   .     S
N4062  N4322   1.349   1_455 S
C4063  H4064   0.950   .     S
C4063  C4194   1.379   .     S
C4065  C4093   1.374   .     S
C4065  H4066   0.950   .     S
C4067  C4096   1.372   .     S
C4067  H4068   0.949   .     S
C4067  C4069   1.372   .     S
C4069  C4095   1.375   .     S
C4069  H4070   0.949   .     S
N4071  Co4082  1.980   .     S
N4071  C4073   1.327   .     S
N4071  N5931   1.357   1_455 S
N4072  C4075   1.335   .     S
N4072  Co4484  1.976   .     S
C4073  H4074   0.950   .     S
C4073  C5698   1.379   .     S
C4075  C4197   1.374   .     S
C4075  H4076   0.950   .     S
C4077  C4200   1.372   .     S
C4077  H4078   0.949   .     S
C4077  C4079   1.372   .     S
C4079  C4199   1.375   .     S
C4079  H4080   0.949   .     S
Co4081 N4422   1.976   .     S
Co4081 N4152   1.976   .     S
Co4082 N4342   1.976   1_455 S
Co4083 N4312   1.976   1_455 S
Co4083 N4462   1.976   .     S
Co4084 N4102   1.976   .     S
C4085  C4088   1.490   .     S
C4086  C4087   1.481   .     S
C4089  C4092   1.490   .     S
C4090  C4091   1.481   .     S
C4093  C4325   1.374   1_455 S
C4093  C4096   1.490   .     S
C4094  C4363   1.379   1_455 S
C4094  C4095   1.481   .     S
C4095  C4329   1.375   1_455 S
C4096  C4327   1.372   1_455 S
C4097  C4375   1.374   1_455 S
C4097  C4100   1.490   .     S
C4098  C4333   1.379   1_455 S
C4098  C4099   1.481   .     S
C4099  C4379   1.375   1_455 S
C4100  C4377   1.372   1_455 S
N4101  Co4181  1.980   .     S
N4101  C4103   1.327   .     S
N4101  N4551   1.357   .     S
N4102  C4105   1.335   .     S
C4103  H4104   0.950   .     S
C4103  C4586   1.379   .     S
C4105  C4185   1.374   .     S
C4105  H4106   0.950   .     S
C4107  C4188   1.372   .     S
C4107  H4108   0.949   .     S
C4107  C4109   1.372   .     S
C4109  C4187   1.375   .     S
C4109  H4110   0.949   .     S
N4111  Co4182  1.980   .     S
N4111  C4113   1.327   .     S
N4112  C4115   1.335   .     S
N4112  Co4283  1.976   .     S
N4112  N4542   1.349   .     S
C4113  H4114   0.950   .     S
C4113  C4190   1.379   .     S
C4115  C4589   1.374   .     S
C4115  H4116   0.950   .     S
C4117  C4592   1.372   .     S
C4117  H4118   0.949   .     S
C4117  C4119   1.372   .     S
C4119  C4591   1.375   .     S
C4119  H4120   0.949   .     S
N4121  Co4183  1.980   .     S
N4121  C4123   1.327   .     S
N4122  C4125   1.335   .     S
N4122  N4262   1.349   .     S
C4123  H4124   0.950   .     S
C4123  C4194   1.379   .     S
C4125  C4293   1.374   .     S
C4125  H4126   0.950   .     S
C4127  C4296   1.372   .     S
C4127  H4128   0.949   .     S
C4127  C4129   1.372   .     S
C4129  C4295   1.375   .     S
C4129  H4130   0.949   .     S
N4131  Co4184  1.980   .     S
N4131  C4133   1.327   .     S
N4132  C4135   1.335   .     S
N4132  Co4582  1.976   .     S
N4132  N5672   1.349   .     S
C4133  H4134   0.950   .     S
C4133  C4298   1.379   .     S
C4135  C5797   1.374   .     S
C4135  H4136   0.950   .     S
C4137  C5800   1.372   .     S
C4137  H4138   0.949   .     S
C4137  C4139   1.372   .     S
C4139  C5799   1.375   .     S
C4139  H4140   0.949   .     S
N4141  Co4183  1.980   .     S
N4141  C4143   1.327   .     S
N4141  N4511   1.357   .     S
N4142  C4145   1.335   .     S
N4142  Co4282  1.976   .     S
C4143  H4144   0.950   .     S
C4143  C4590   1.379   .     S
C4145  C4189   1.374   .     S
C4145  H4146   0.950   .     S
C4147  C4192   1.372   .     S
C4147  H4148   0.949   .     S
C4147  C4149   1.372   .     S
C4149  C4191   1.375   .     S
C4149  H4150   0.949   .     S
N4151  Co4184  1.980   .     S
N4151  C4153   1.327   .     S
N4152  C4155   1.335   .     S
N4152  N4502   1.349   .     S
C4153  H4154   0.950   .     S
C4153  C4186   1.379   .     S
C4155  C4585   1.374   .     S
C4155  H4156   0.950   .     S
C4157  C4588   1.372   .     S
C4157  H4158   0.949   .     S
C4157  C4159   1.372   .     S
C4159  C4587   1.375   .     S
C4159  H4160   0.949   .     S
N4161  Co4181  1.980   .     S
N4161  C4163   1.327   .     S
N4161  N4221   1.357   .     S
N4162  C4165   1.335   .     S
C4163  H4164   0.950   .     S
C4163  C4294   1.379   .     S
C4165  C4193   1.374   .     S
C4165  H4166   0.950   .     S
C4167  C4196   1.372   .     S
C4167  H4168   0.949   .     S
C4167  C4169   1.372   .     S
C4169  C4195   1.375   .     S
C4169  H4170   0.949   .     S
N4171  Co4182  1.980   .     S
N4171  C4173   1.327   .     S
N4171  N5631   1.357   .     S
N4172  C4175   1.335   .     S
N4172  Co4584  1.976   .     S
C4173  H4174   0.950   .     S
C4173  C5798   1.379   .     S
C4175  C4297   1.374   .     S
C4175  H4176   0.950   .     S
C4177  C4300   1.372   .     S
C4177  H4178   0.949   .     S
C4177  C4179   1.372   .     S
C4179  C4299   1.375   .     S
C4179  H4180   0.949   .     S
Co4181 N4522   1.976   .     S
Co4181 N4252   1.976   .     S
Co4183 N4562   1.976   .     S
Co4184 N4202   1.976   .     S
C4185  C4188   1.490   .     S
C4186  C4187   1.481   .     S
C4189  C4192   1.490   .     S
C4190  C4191   1.481   .     S
C4193  C4196   1.490   .     S
C4194  C4195   1.481   .     S
C4197  C4200   1.490   .     S
C4198  C4199   1.481   .     S
N4201  Co4281  1.980   .     S
N4201  C4203   1.327   .     S
N4201  N4651   1.357   .     S
N4202  C4205   1.335   .     S
C4203  H4204   0.950   .     S
C4203  C4686   1.379   .     S
C4205  C4285   1.374   .     S
C4205  H4206   0.950   .     S
C4207  C4288   1.372   .     S
C4207  H4208   0.949   .     S
C4207  C4209   1.372   .     S
C4209  C4287   1.375   .     S
C4209  H4210   0.949   .     S
N4211  Co4282  1.980   .     S
N4211  C4213   1.327   .     S
N4212  C4215   1.335   .     S
N4212  Co4383  1.976   .     S
N4212  N4642   1.349   .     S
C4213  H4214   0.950   .     S
C4213  C4290   1.379   .     S
C4215  C4689   1.374   .     S
C4215  H4216   0.950   .     S
C4217  C4692   1.372   .     S
C4217  H4218   0.949   .     S
C4217  C4219   1.372   .     S
C4219  C4691   1.375   .     S
C4219  H4220   0.949   .     S
N4221  Co4283  1.980   .     S
N4221  C4223   1.327   .     S
N4222  C4225   1.335   .     S
N4222  N4362   1.349   .     S
C4223  H4224   0.950   .     S
C4223  C4294   1.379   .     S
C4225  C4393   1.374   .     S
C4225  H4226   0.950   .     S
C4227  C4396   1.372   .     S
C4227  H4228   0.949   .     S
C4227  C4229   1.372   .     S
C4229  C4395   1.375   .     S
C4229  H4230   0.949   .     S
N4231  Co4284  1.980   .     S
N4231  C4233   1.327   .     S
N4232  C4235   1.335   .     S
N4232  Co4682  1.976   .     S
N4232  N5772   1.349   .     S
C4233  H4234   0.950   .     S
C4233  C4398   1.379   .     S
C4235  C5897   1.374   .     S
C4235  H4236   0.950   .     S
C4237  C5900   1.372   .     S
C4237  H4238   0.949   .     S
C4237  C4239   1.372   .     S
C4239  C5899   1.375   .     S
C4239  H4240   0.949   .     S
N4241  Co4283  1.980   .     S
N4241  C4243   1.327   .     S
N4241  N4611   1.357   .     S
N4242  C4245   1.335   .     S
N4242  Co4382  1.976   .     S
C4243  H4244   0.950   .     S
C4243  C4690   1.379   .     S
C4245  C4289   1.374   .     S
C4245  H4246   0.950   .     S
C4247  C4292   1.372   .     S
C4247  H4248   0.949   .     S
C4247  C4249   1.372   .     S
C4249  C4291   1.375   .     S
C4249  H4250   0.949   .     S
N4251  Co4284  1.980   .     S
N4251  C4253   1.327   .     S
N4252  C4255   1.335   .     S
N4252  N4602   1.349   .     S
C4253  H4254   0.950   .     S
C4253  C4286   1.379   .     S
C4255  C4685   1.374   .     S
C4255  H4256   0.950   .     S
C4257  C4688   1.372   .     S
C4257  H4258   0.949   .     S
C4257  C4259   1.372   .     S
C4259  C4687   1.375   .     S
C4259  H4260   0.949   .     S
N4261  Co4281  1.980   .     S
N4261  C4263   1.327   .     S
N4261  N4321   1.357   .     S
N4262  C4265   1.335   .     S
C4263  H4264   0.950   .     S
C4263  C4394   1.379   .     S
C4265  C4293   1.374   .     S
C4265  H4266   0.950   .     S
C4267  C4296   1.372   .     S
C4267  H4268   0.949   .     S
C4267  C4269   1.372   .     S
C4269  C4295   1.375   .     S
C4269  H4270   0.949   .     S
N4271  Co4282  1.980   .     S
N4271  C4273   1.327   .     S
N4271  N5731   1.357   .     S
N4272  C4275   1.335   .     S
N4272  Co4684  1.976   .     S
C4273  H4274   0.950   .     S
C4273  C5898   1.379   .     S
C4275  C4397   1.374   .     S
C4275  H4276   0.950   .     S
C4277  C4400   1.372   .     S
C4277  H4278   0.949   .     S
C4277  C4279   1.372   .     S
C4279  C4399   1.375   .     S
C4279  H4280   0.949   .     S
Co4281 N4622   1.976   .     S
Co4281 N4352   1.976   .     S
Co4283 N4662   1.976   .     S
Co4284 N4302   1.976   .     S
C4285  C4288   1.490   .     S
C4286  C4287   1.481   .     S
C4289  C4292   1.490   .     S
C4290  C4291   1.481   .     S
C4293  C4296   1.490   .     S
C4294  C4295   1.481   .     S
C4297  C4300   1.490   .     S
C4298  C4299   1.481   .     S
N4301  Co4381  1.980   .     S
N4301  C4303   1.327   .     S
N4301  N4751   1.357   .     S
N4302  C4305   1.335   .     S
C4303  H4304   0.950   .     S
C4303  C4786   1.379   .     S
C4305  C4385   1.374   .     S
C4305  H4306   0.950   .     S
C4307  C4388   1.372   .     S
C4307  H4308   0.949   .     S
C4307  C4309   1.372   .     S
C4309  C4387   1.375   .     S
C4309  H4310   0.949   .     S
N4311  Co4382  1.980   .     S
N4311  C4313   1.327   .     S
N4312  C4315   1.335   .     S
N4312  Co4083  1.976   1_655 S
N4312  N4742   1.349   .     S
C4313  H4314   0.950   .     S
C4313  C4390   1.379   .     S
C4315  C4789   1.374   .     S
C4315  H4316   0.950   .     S
C4317  C4792   1.372   .     S
C4317  H4318   0.949   .     S
C4317  C4319   1.372   .     S
C4319  C4791   1.375   .     S
C4319  H4320   0.949   .     S
N4321  Co4383  1.980   .     S
N4321  C4323   1.327   .     S
N4322  C4325   1.335   .     S
N4322  N4062   1.349   1_655 S
C4323  H4324   0.950   .     S
C4323  C4394   1.379   .     S
C4325  C4093   1.374   1_655 S
C4325  H4326   0.950   .     S
C4327  C4096   1.372   1_655 S
C4327  H4328   0.949   .     S
C4327  C4329   1.372   .     S
C4329  C4095   1.375   1_655 S
C4329  H4330   0.949   .     S
N4331  Co4384  1.980   .     S
N4331  C4333   1.327   .     S
N4331  N2471   1.357   1_655 S
N4332  C4335   1.335   .     S
N4332  Co4782  1.976   .     S
N4332  N5872   1.349   .     S
C4333  H4334   0.950   .     S
C4333  C4098   1.379   1_655 S
C4335  C5997   1.374   .     S
C4335  H4336   0.950   .     S
C4337  C6000   1.372   .     S
C4337  H4338   0.949   .     S
C4337  C4339   1.372   .     S
C4339  C5999   1.375   .     S
C4339  H4340   0.949   .     S
N4341  Co4383  1.980   .     S
N4341  C4343   1.327   .     S
N4341  N4711   1.357   .     S
N4342  C4345   1.335   .     S
N4342  Co4082  1.976   1_655 S
C4343  H4344   0.950   .     S
C4343  C4790   1.379   .     S
C4345  C4389   1.374   .     S
C4345  H4346   0.950   .     S
C4347  C4392   1.372   .     S
C4347  H4348   0.949   .     S
C4347  C4349   1.372   .     S
C4349  C4391   1.375   .     S
C4349  H4350   0.949   .     S
N4351  Co4384  1.980   .     S
N4351  C4353   1.327   .     S
N4352  C4355   1.335   .     S
N4352  N4702   1.349   .     S
C4353  H4354   0.950   .     S
C4353  C4386   1.379   .     S
C4355  C4785   1.374   .     S
C4355  H4356   0.950   .     S
C4357  C4788   1.372   .     S
C4357  H4358   0.949   .     S
C4357  C4359   1.372   .     S
C4359  C4787   1.375   .     S
C4359  H4360   0.949   .     S
N4361  Co4381  1.980   .     S
N4361  C4363   1.327   .     S
N4361  N4021   1.357   1_655 S
N4362  C4365   1.335   .     S
C4363  H4364   0.950   .     S
C4363  C4094   1.379   1_655 S
C4365  C4393   1.374   .     S
C4365  H4366   0.950   .     S
C4367  C4396   1.372   .     S
C4367  H4368   0.949   .     S
C4367  C4369   1.372   .     S
C4369  C4395   1.375   .     S
C4369  H4370   0.949   .     S
N4371  Co4382  1.980   .     S
N4371  C4373   1.327   .     S
N4371  N5831   1.357   .     S
N4372  C4375   1.335   .     S
N4372  Co4784  1.976   .     S
N4372  N2432   1.349   1_655 S
C4373  H4374   0.950   .     S
C4373  C5998   1.379   .     S
C4375  C4097   1.374   1_655 S
C4375  H4376   0.950   .     S
C4377  C4100   1.372   1_655 S
C4377  H4378   0.949   .     S
C4377  C4379   1.372   .     S
C4379  C4099   1.375   1_655 S
C4379  H4380   0.949   .     S
Co4381 N4722   1.976   .     S
Co4381 N4052   1.976   1_655 S
Co4383 N4762   1.976   .     S
Co4384 N4002   1.976   1_655 S
C4385  C4388   1.490   .     S
C4386  C4387   1.481   .     S
C4389  C4392   1.490   .     S
C4390  C4391   1.481   .     S
C4393  C4396   1.490   .     S
C4394  C4395   1.481   .     S
C4397  C4400   1.490   .     S
C4398  C4399   1.481   .     S
N4401  Co4481  1.980   .     S
N4401  C4403   1.327   .     S
N4401  N3251   1.357   1_565 S
N4402  C4405   1.335   .     S
N4402  Co4784  1.976   1_455 S
C4403  H4404   0.950   .     S
C4403  C3286   1.379   1_565 S
C4405  C4485   1.374   .     S
C4405  H4406   0.950   .     S
C4407  C4488   1.372   .     S
C4407  H4408   0.949   .     S
C4407  C4409   1.372   .     S
C4409  C4487   1.375   .     S
C4409  H4410   0.949   .     S
N4411  Co4482  1.980   .     S
N4411  C4413   1.327   .     S
N4412  C4415   1.335   .     S
N4412  Co4583  1.976   .     S
N4412  N3242   1.349   1_565 S
C4413  H4414   0.950   .     S
C4413  C4490   1.379   .     S
C4415  C3289   1.374   1_565 S
C4415  H4416   0.950   .     S
C4417  C3292   1.372   1_565 S
C4417  H4418   0.949   .     S
C4417  C4419   1.372   .     S
C4419  C3291   1.375   1_565 S
C4419  H4420   0.949   .     S
N4421  Co4483  1.980   .     S
N4421  C4423   1.327   .     S
N4421  N4761   1.357   1_455 S
N4422  C4425   1.335   .     S
N4422  N4562   1.349   .     S
C4423  H4424   0.950   .     S
C4423  C4494   1.379   .     S
C4425  C4593   1.374   .     S
C4425  H4426   0.950   .     S
C4427  C4596   1.372   .     S
C4427  H4428   0.949   .     S
C4427  C4429   1.372   .     S
C4429  C4595   1.375   .     S
C4429  H4430   0.949   .     S
N4431  Co4484  1.980   .     S
N4431  C4433   1.327   .     S
N4432  C4435   1.335   .     S
N4432  Co3282  1.976   1_565 S
N4432  N6372   1.349   1_455 S
C4433  H4434   0.950   .     S
C4433  C4598   1.379   .     S
C4435  C6097   1.374   .     S
C4435  H4436   0.950   .     S
C4437  C6100   1.372   .     S
C4437  H4438   0.949   .     S
C4437  C4439   1.372   .     S
C4439  C6099   1.375   .     S
C4439  H4440   0.949   .     S
N4441  Co4483  1.980   .     S
N4441  C4443   1.327   .     S
N4441  N3211   1.357   1_565 S
N4442  C4445   1.335   .     S
N4442  Co4582  1.976   .     S
C4443  H4444   0.950   .     S
C4443  C3290   1.379   1_565 S
C4445  C4489   1.374   .     S
C4445  H4446   0.950   .     S
C4447  C4492   1.372   .     S
C4447  H4448   0.949   .     S
C4447  C4449   1.372   .     S
C4449  C4491   1.375   .     S
C4449  H4450   0.949   .     S
N4451  Co4484  1.980   .     S
N4451  C4453   1.327   .     S
N4452  C4455   1.335   .     S
N4452  Co4781  1.976   1_455 S
N4452  N3202   1.349   1_565 S
C4453  H4454   0.950   .     S
C4453  C4486   1.379   .     S
C4455  C3285   1.374   1_565 S
C4455  H4456   0.950   .     S
C4457  C3288   1.372   1_565 S
C4457  H4458   0.949   .     S
C4457  C4459   1.372   .     S
C4459  C3287   1.375   1_565 S
C4459  H4460   0.949   .     S
N4461  Co4481  1.980   .     S
N4461  C4463   1.327   .     S
N4461  N4521   1.357   .     S
N4462  C4465   1.335   .     S
N4462  N4722   1.349   1_455 S
C4463  H4464   0.950   .     S
C4463  C4594   1.379   .     S
C4465  C4493   1.374   .     S
C4465  H4466   0.950   .     S
C4467  C4496   1.372   .     S
C4467  H4468   0.949   .     S
C4467  C4469   1.372   .     S
C4469  C4495   1.375   .     S
C4469  H4470   0.949   .     S
N4471  Co4482  1.980   .     S
N4471  C4473   1.327   .     S
N4471  N6331   1.357   1_455 S
N4472  C4475   1.335   .     S
N4472  Co3284  1.976   1_565 S
C4473  H4474   0.950   .     S
C4473  C6098   1.379   .     S
C4475  C4597   1.374   .     S
C4475  H4476   0.950   .     S
C4477  C4600   1.372   .     S
C4477  H4478   0.949   .     S
C4477  C4479   1.372   .     S
C4479  C4599   1.375   .     S
C4479  H4480   0.949   .     S
Co4481 N3222   1.976   1_565 S
Co4481 N4552   1.976   .     S
Co4482 N4742   1.976   1_455 S
Co4483 N4712   1.976   1_455 S
Co4483 N3262   1.976   1_565 S
Co4484 N4502   1.976   .     S
C4485  C4488   1.490   .     S
C4486  C4487   1.481   .     S
C4489  C4492   1.490   .     S
C4490  C4491   1.481   .     S
C4493  C4725   1.374   1_455 S
C4493  C4496   1.490   .     S
C4494  C4763   1.379   1_455 S
C4494  C4495   1.481   .     S
C4495  C4729   1.375   1_455 S
C4496  C4727   1.372   1_455 S
C4497  C4775   1.374   1_455 S
C4497  C4500   1.490   .     S
C4498  C4733   1.379   1_455 S
C4498  C4499   1.481   .     S
C4499  C4779   1.375   1_455 S
C4500  C4777   1.372   1_455 S
N4501  Co4581  1.980   .     S
N4501  C4503   1.327   .     S
N4501  N3351   1.357   1_565 S
N4502  C4505   1.335   .     S
C4503  H4504   0.950   .     S
C4503  C3386   1.379   1_565 S
C4505  C4585   1.374   .     S
C4505  H4506   0.950   .     S
C4507  C4588   1.372   .     S
C4507  H4508   0.949   .     S
C4507  C4509   1.372   .     S
C4509  C4587   1.375   .     S
C4509  H4510   0.949   .     S
N4511  Co4582  1.980   .     S
N4511  C4513   1.327   .     S
N4512  C4515   1.335   .     S
N4512  Co4683  1.976   .     S
N4512  N3342   1.349   1_565 S
C4513  H4514   0.950   .     S
C4513  C4590   1.379   .     S
C4515  C3389   1.374   1_565 S
C4515  H4516   0.950   .     S
C4517  C3392   1.372   1_565 S
C4517  H4518   0.949   .     S
C4517  C4519   1.372   .     S
C4519  C3391   1.375   1_565 S
C4519  H4520   0.949   .     S
N4521  Co4583  1.980   .     S
N4521  C4523   1.327   .     S
N4522  C4525   1.335   .     S
N4522  N4662   1.349   .     S
C4523  H4524   0.950   .     S
C4523  C4594   1.379   .     S
C4525  C4693   1.374   .     S
C4525  H4526   0.950   .     S
C4527  C4696   1.372   .     S
C4527  H4528   0.949   .     S
C4527  C4529   1.372   .     S
C4529  C4695   1.375   .     S
C4529  H4530   0.949   .     S
N4531  Co4584  1.980   .     S
N4531  C4533   1.327   .     S
N4532  C4535   1.335   .     S
N4532  Co3382  1.976   1_565 S
N4532  N6072   1.349   .     S
C4533  H4534   0.950   .     S
C4533  C4698   1.379   .     S
C4535  C6197   1.374   .     S
C4535  H4536   0.950   .     S
C4537  C6200   1.372   .     S
C4537  H4538   0.949   .     S
C4537  C4539   1.372   .     S
C4539  C6199   1.375   .     S
C4539  H4540   0.949   .     S
N4541  Co4583  1.980   .     S
N4541  C4543   1.327   .     S
N4541  N3311   1.357   1_565 S
N4542  C4545   1.335   .     S
N4542  Co4682  1.976   .     S
C4543  H4544   0.950   .     S
C4543  C3390   1.379   1_565 S
C4545  C4589   1.374   .     S
C4545  H4546   0.950   .     S
C4547  C4592   1.372   .     S
C4547  H4548   0.949   .     S
C4547  C4549   1.372   .     S
C4549  C4591   1.375   .     S
C4549  H4550   0.949   .     S
N4551  Co4584  1.980   .     S
N4551  C4553   1.327   .     S
N4552  C4555   1.335   .     S
N4552  N3302   1.349   1_565 S
C4553  H4554   0.950   .     S
C4553  C4586   1.379   .     S
C4555  C3385   1.374   1_565 S
C4555  H4556   0.950   .     S
C4557  C3388   1.372   1_565 S
C4557  H4558   0.949   .     S
C4557  C4559   1.372   .     S
C4559  C3387   1.375   1_565 S
C4559  H4560   0.949   .     S
N4561  Co4581  1.980   .     S
N4561  C4563   1.327   .     S
N4561  N4621   1.357   .     S
N4562  C4565   1.335   .     S
C4563  H4564   0.950   .     S
C4563  C4694   1.379   .     S
C4565  C4593   1.374   .     S
C4565  H4566   0.950   .     S
C4567  C4596   1.372   .     S
C4567  H4568   0.949   .     S
C4567  C4569   1.372   .     S
C4569  C4595   1.375   .     S
C4569  H4570   0.949   .     S
N4571  Co4582  1.980   .     S
N4571  C4573   1.327   .     S
N4571  N6031   1.357   .     S
N4572  C4575   1.335   .     S
N4572  Co3384  1.976   1_565 S
C4573  H4574   0.950   .     S
C4573  C6198   1.379   .     S
C4575  C4697   1.374   .     S
C4575  H4576   0.950   .     S
C4577  C4700   1.372   .     S
C4577  H4578   0.949   .     S
C4577  C4579   1.372   .     S
C4579  C4699   1.375   .     S
C4579  H4580   0.949   .     S
Co4581 N3322   1.976   1_565 S
Co4581 N4652   1.976   .     S
Co4583 N3362   1.976   1_565 S
Co4584 N4602   1.976   .     S
C4585  C4588   1.490   .     S
C4586  C4587   1.481   .     S
C4589  C4592   1.490   .     S
C4590  C4591   1.481   .     S
C4593  C4596   1.490   .     S
C4594  C4595   1.481   .     S
C4597  C4600   1.490   .     S
C4598  C4599   1.481   .     S
N4601  Co4681  1.980   .     S
N4601  C4603   1.327   .     S
N4601  N3451   1.357   1_565 S
N4602  C4605   1.335   .     S
C4603  H4604   0.950   .     S
C4603  C3486   1.379   1_565 S
C4605  C4685   1.374   .     S
C4605  H4606   0.950   .     S
C4607  C4688   1.372   .     S
C4607  H4608   0.949   .     S
C4607  C4609   1.372   .     S
C4609  C4687   1.375   .     S
C4609  H4610   0.949   .     S
N4611  Co4682  1.980   .     S
N4611  C4613   1.327   .     S
N4612  C4615   1.335   .     S
N4612  Co4783  1.976   .     S
N4612  N3442   1.349   1_565 S
C4613  H4614   0.950   .     S
C4613  C4690   1.379   .     S
C4615  C3489   1.374   1_565 S
C4615  H4616   0.950   .     S
C4617  C3492   1.372   1_565 S
C4617  H4618   0.949   .     S
C4617  C4619   1.372   .     S
C4619  C3491   1.375   1_565 S
C4619  H4620   0.949   .     S
N4621  Co4683  1.980   .     S
N4621  C4623   1.327   .     S
N4622  C4625   1.335   .     S
N4622  N4762   1.349   .     S
C4623  H4624   0.950   .     S
C4623  C4694   1.379   .     S
C4625  C4793   1.374   .     S
C4625  H4626   0.950   .     S
C4627  C4796   1.372   .     S
C4627  H4628   0.949   .     S
C4627  C4629   1.372   .     S
C4629  C4795   1.375   .     S
C4629  H4630   0.949   .     S
N4631  Co4684  1.980   .     S
N4631  C4633   1.327   .     S
N4632  C4635   1.335   .     S
N4632  Co3482  1.976   1_565 S
N4632  N6172   1.349   .     S
C4633  H4634   0.950   .     S
C4633  C4798   1.379   .     S
C4635  C6297   1.374   .     S
C4635  H4636   0.950   .     S
C4637  C6300   1.372   .     S
C4637  H4638   0.949   .     S
C4637  C4639   1.372   .     S
C4639  C6299   1.375   .     S
C4639  H4640   0.949   .     S
N4641  Co4683  1.980   .     S
N4641  C4643   1.327   .     S
N4641  N3411   1.357   1_565 S
N4642  C4645   1.335   .     S
N4642  Co4782  1.976   .     S
C4643  H4644   0.950   .     S
C4643  C3490   1.379   1_565 S
C4645  C4689   1.374   .     S
C4645  H4646   0.950   .     S
C4647  C4692   1.372   .     S
C4647  H4648   0.949   .     S
C4647  C4649   1.372   .     S
C4649  C4691   1.375   .     S
C4649  H4650   0.949   .     S
N4651  Co4684  1.980   .     S
N4651  C4653   1.327   .     S
N4652  C4655   1.335   .     S
N4652  N3402   1.349   1_565 S
C4653  H4654   0.950   .     S
C4653  C4686   1.379   .     S
C4655  C3485   1.374   1_565 S
C4655  H4656   0.950   .     S
C4657  C3488   1.372   1_565 S
C4657  H4658   0.949   .     S
C4657  C4659   1.372   .     S
C4659  C3487   1.375   1_565 S
C4659  H4660   0.949   .     S
N4661  Co4681  1.980   .     S
N4661  C4663   1.327   .     S
N4661  N4721   1.357   .     S
N4662  C4665   1.335   .     S
C4663  H4664   0.950   .     S
C4663  C4794   1.379   .     S
C4665  C4693   1.374   .     S
C4665  H4666   0.950   .     S
C4667  C4696   1.372   .     S
C4667  H4668   0.949   .     S
C4667  C4669   1.372   .     S
C4669  C4695   1.375   .     S
C4669  H4670   0.949   .     S
N4671  Co4682  1.980   .     S
N4671  C4673   1.327   .     S
N4671  N6131   1.357   .     S
N4672  C4675   1.335   .     S
N4672  Co3484  1.976   1_565 S
C4673  H4674   0.950   .     S
C4673  C6298   1.379   .     S
C4675  C4797   1.374   .     S
C4675  H4676   0.950   .     S
C4677  C4800   1.372   .     S
C4677  H4678   0.949   .     S
C4677  C4679   1.372   .     S
C4679  C4799   1.375   .     S
C4679  H4680   0.949   .     S
Co4681 N3422   1.976   1_565 S
Co4681 N4752   1.976   .     S
Co4683 N3462   1.976   1_565 S
Co4684 N4702   1.976   .     S
C4685  C4688   1.490   .     S
C4686  C4687   1.481   .     S
C4689  C4692   1.490   .     S
C4690  C4691   1.481   .     S
C4693  C4696   1.490   .     S
C4694  C4695   1.481   .     S
C4697  C4700   1.490   .     S
C4698  C4699   1.481   .     S
N4701  Co4781  1.980   .     S
N4701  C4703   1.327   .     S
N4701  N3551   1.357   1_565 S
N4702  C4705   1.335   .     S
C4703  H4704   0.950   .     S
C4703  C3586   1.379   1_565 S
C4705  C4785   1.374   .     S
C4705  H4706   0.950   .     S
C4707  C4788   1.372   .     S
C4707  H4708   0.949   .     S
C4707  C4709   1.372   .     S
C4709  C4787   1.375   .     S
C4709  H4710   0.949   .     S
N4711  Co4782  1.980   .     S
N4711  C4713   1.327   .     S
N4712  C4715   1.335   .     S
N4712  Co4483  1.976   1_655 S
N4712  N3542   1.349   1_565 S
C4713  H4714   0.950   .     S
C4713  C4790   1.379   .     S
C4715  C3589   1.374   1_565 S
C4715  H4716   0.950   .     S
C4717  C3592   1.372   1_565 S
C4717  H4718   0.949   .     S
C4717  C4719   1.372   .     S
C4719  C3591   1.375   1_565 S
C4719  H4720   0.949   .     S
N4721  Co4783  1.980   .     S
N4721  C4723   1.327   .     S
N4722  C4725   1.335   .     S
N4722  N4462   1.349   1_655 S
C4723  H4724   0.950   .     S
C4723  C4794   1.379   .     S
C4725  C4493   1.374   1_655 S
C4725  H4726   0.950   .     S
C4727  C4496   1.372   1_655 S
C4727  H4728   0.949   .     S
C4727  C4729   1.372   .     S
C4729  C4495   1.375   1_655 S
C4729  H4730   0.949   .     S
N4731  Co4784  1.980   .     S
N4731  C4733   1.327   .     S
N4731  N2871   1.357   1_655 S
N4732  C4735   1.335   .     S
N4732  Co3582  1.976   1_565 S
N4732  N6272   1.349   .     S
C4733  H4734   0.950   .     S
C4733  C4498   1.379   1_655 S
C4735  C6397   1.374   .     S
C4735  H4736   0.950   .     S
C4737  C6400   1.372   .     S
C4737  H4738   0.949   .     S
C4737  C4739   1.372   .     S
C4739  C6399   1.375   .     S
C4739  H4740   0.949   .     S
N4741  Co4783  1.980   .     S
N4741  C4743   1.327   .     S
N4741  N3511   1.357   1_565 S
N4742  C4745   1.335   .     S
N4742  Co4482  1.976   1_655 S
C4743  H4744   0.950   .     S
C4743  C3590   1.379   1_565 S
C4745  C4789   1.374   .     S
C4745  H4746   0.950   .     S
C4747  C4792   1.372   .     S
C4747  H4748   0.949   .     S
C4747  C4749   1.372   .     S
C4749  C4791   1.375   .     S
C4749  H4750   0.949   .     S
N4751  Co4784  1.980   .     S
N4751  C4753   1.327   .     S
N4752  C4755   1.335   .     S
N4752  N3502   1.349   1_565 S
C4753  H4754   0.950   .     S
C4753  C4786   1.379   .     S
C4755  C3585   1.374   1_565 S
C4755  H4756   0.950   .     S
C4757  C3588   1.372   1_565 S
C4757  H4758   0.949   .     S
C4757  C4759   1.372   .     S
C4759  C3587   1.375   1_565 S
C4759  H4760   0.949   .     S
N4761  Co4781  1.980   .     S
N4761  C4763   1.327   .     S
N4761  N4421   1.357   1_655 S
N4762  C4765   1.335   .     S
C4763  H4764   0.950   .     S
C4763  C4494   1.379   1_655 S
C4765  C4793   1.374   .     S
C4765  H4766   0.950   .     S
C4767  C4796   1.372   .     S
C4767  H4768   0.949   .     S
C4767  C4769   1.372   .     S
C4769  C4795   1.375   .     S
C4769  H4770   0.949   .     S
N4771  Co4782  1.980   .     S
N4771  C4773   1.327   .     S
N4771  N6231   1.357   .     S
N4772  C4775   1.335   .     S
N4772  Co3584  1.976   1_565 S
N4772  N2832   1.349   1_655 S
C4773  H4774   0.950   .     S
C4773  C6398   1.379   .     S
C4775  C4497   1.374   1_655 S
C4775  H4776   0.950   .     S
C4777  C4500   1.372   1_655 S
C4777  H4778   0.949   .     S
C4777  C4779   1.372   .     S
C4779  C4499   1.375   1_655 S
C4779  H4780   0.949   .     S
Co4781 N3522   1.976   1_565 S
Co4781 N4452   1.976   1_655 S
Co4783 N3562   1.976   1_565 S
Co4784 N4402   1.976   1_655 S
C4785  C4788   1.490   .     S
C4786  C4787   1.481   .     S
C4789  C4792   1.490   .     S
C4790  C4791   1.481   .     S
C4793  C4796   1.490   .     S
C4794  C4795   1.481   .     S
C4797  C4800   1.490   .     S
C4798  C4799   1.481   .     S
N4801  Co4881  1.980   .     S
N4801  C4803   1.327   .     S
N4801  N5251   1.357   .     S
N4802  C4805   1.335   .     S
N4802  Co5184  1.976   1_455 S
N4802  N6052   1.349   1_545 S
C4803  H4804   0.950   .     S
C4803  C5286   1.379   .     S
C4805  C4885   1.374   .     S
C4805  H4806   0.950   .     S
C4807  C4888   1.372   .     S
C4807  H4808   0.949   .     S
C4807  C4809   1.372   .     S
C4809  C4887   1.375   .     S
C4809  H4810   0.949   .     S
N4811  Co4882  1.980   .     S
N4811  C4813   1.327   .     S
N4811  N6041   1.357   1_545 S
N4812  C4815   1.335   .     S
N4812  Co4983  1.976   .     S
N4812  N5242   1.349   .     S
C4813  H4814   0.950   .     S
C4813  C4890   1.379   .     S
C4815  C5289   1.374   .     S
C4815  H4816   0.950   .     S
C4817  C5292   1.372   .     S
C4817  H4818   0.949   .     S
C4817  C4819   1.372   .     S
C4819  C5291   1.375   .     S
C4819  H4820   0.949   .     S
N4821  Co4883  1.980   .     S
N4821  C4823   1.327   .     S
N4821  N5161   1.357   1_455 S
N4822  C4825   1.335   .     S
N4822  Co6081  1.976   1_545 S
N4822  N4962   1.349   .     S
C4823  H4824   0.950   .     S
C4823  C4894   1.379   .     S
C4825  C4993   1.374   .     S
C4825  H4826   0.950   .     S
C4827  C4996   1.372   .     S
C4827  H4828   0.949   .     S
C4827  C4829   1.372   .     S
C4829  C4995   1.375   .     S
C4829  H4830   0.949   .     S
N4831  Co4884  1.980   .     S
N4831  C4833   1.327   .     S
N4832  C4835   1.335   .     S
N4832  Co5282  1.976   .     S
N4832  N372    1.349   1_456 S
C4833  H4834   0.950   .     S
C4833  C4998   1.379   .     S
C4835  C97     1.374   1_556 S
C4835  H4836   0.950   .     S
C4837  C100    1.372   1_556 S
C4837  H4838   0.949   .     S
C4837  C4839   1.372   .     S
C4839  C99     1.375   1_556 S
C4839  H4840   0.949   .     S
N4841  Co4883  1.980   .     S
N4841  C4843   1.327   .     S
N4841  N5211   1.357   .     S
N4842  C4845   1.335   .     S
N4842  Co4982  1.976   .     S
N4842  N6012   1.349   1_545 S
C4843  H4844   0.950   .     S
C4843  C5290   1.379   .     S
C4845  C4889   1.374   .     S
C4845  H4846   0.950   .     S
C4847  C4892   1.372   .     S
C4847  H4848   0.949   .     S
C4847  C4849   1.372   .     S
C4849  C4891   1.375   .     S
C4849  H4850   0.949   .     S
N4851  Co4884  1.980   .     S
N4851  C4853   1.327   .     S
N4851  N6001   1.357   1_545 S
N4852  C4855   1.335   .     S
N4852  Co5181  1.976   1_455 S
N4852  N5202   1.349   .     S
C4853  H4854   0.950   .     S
C4853  C4886   1.379   .     S
C4855  C5285   1.374   .     S
C4855  H4856   0.950   .     S
C4857  C5288   1.372   .     S
C4857  H4858   0.949   .     S
C4857  C4859   1.372   .     S
C4859  C5287   1.375   .     S
C4859  H4860   0.949   .     S
N4861  Co4881  1.980   .     S
N4861  C4863   1.327   .     S
N4861  N4921   1.357   .     S
N4862  C4865   1.335   .     S
N4862  Co6083  1.976   1_545 S
N4862  N5122   1.349   1_455 S
C4863  H4864   0.950   .     S
C4863  C4994   1.379   .     S
C4865  C4893   1.374   .     S
C4865  H4866   0.950   .     S
C4867  C4896   1.372   .     S
C4867  H4868   0.949   .     S
C4867  C4869   1.372   .     S
C4869  C4895   1.375   .     S
C4869  H4870   0.949   .     S
N4871  Co4882  1.980   .     S
N4871  C4873   1.327   .     S
N4871  N331    1.357   1_456 S
N4872  C4875   1.335   .     S
N4872  Co5284  1.976   .     S
C4873  H4874   0.950   .     S
C4873  C98     1.379   1_556 S
C4875  C4997   1.374   .     S
C4875  H4876   0.950   .     S
C4877  C5000   1.372   .     S
C4877  H4878   0.949   .     S
C4877  C4879   1.372   .     S
C4879  C4999   1.375   .     S
C4879  H4880   0.949   .     S
Co4881 N5222   1.976   .     S
Co4881 N4952   1.976   .     S
Co4882 N6032   1.976   1_545 S
Co4882 N5142   1.976   1_455 S
Co4883 N5112   1.976   1_455 S
Co4883 N5262   1.976   .     S
Co4884 N4902   1.976   .     S
Co4884 N6072   1.976   1_545 S
C4885  C6055   1.374   1_545 S
C4885  C4888   1.490   .     S
C4886  C6003   1.379   1_545 S
C4886  C4887   1.481   .     S
C4887  C6059   1.375   1_545 S
C4888  C6057   1.372   1_545 S
C4889  C6015   1.374   1_545 S
C4889  C4892   1.490   .     S
C4890  C6043   1.379   1_545 S
C4890  C4891   1.481   .     S
C4891  C6019   1.375   1_545 S
C4892  C6017   1.372   1_545 S
C4893  C5125   1.374   1_455 S
C4893  C4896   1.490   .     S
C4894  C5163   1.379   1_455 S
C4894  C4895   1.481   .     S
C4895  C5129   1.375   1_455 S
C4896  C5127   1.372   1_455 S
C4897  C5175   1.374   1_455 S
C4897  C4900   1.490   .     S
C4898  C5133   1.379   1_455 S
C4898  C4899   1.481   .     S
C4899  C5179   1.375   1_455 S
C4900  C5177   1.372   1_455 S
N4901  Co4981  1.980   .     S
N4901  C4903   1.327   .     S
N4901  N5351   1.357   .     S
N4902  C4905   1.335   .     S
N4902  N6152   1.349   1_545 S
C4903  H4904   0.950   .     S
C4903  C5386   1.379   .     S
C4905  C4985   1.374   .     S
C4905  H4906   0.950   .     S
C4907  C4988   1.372   .     S
C4907  H4908   0.949   .     S
C4907  C4909   1.372   .     S
C4909  C4987   1.375   .     S
C4909  H4910   0.949   .     S
N4911  Co4982  1.980   .     S
N4911  C4913   1.327   .     S
N4911  N6141   1.357   1_545 S
N4912  C4915   1.335   .     S
N4912  Co5083  1.976   .     S
N4912  N5342   1.349   .     S
C4913  H4914   0.950   .     S
C4913  C4990   1.379   .     S
C4915  C5389   1.374   .     S
C4915  H4916   0.950   .     S
C4917  C5392   1.372   .     S
C4917  H4918   0.949   .     S
C4917  C4919   1.372   .     S
C4919  C5391   1.375   .     S
C4919  H4920   0.949   .     S
N4921  Co4983  1.980   .     S
N4921  C4923   1.327   .     S
N4922  C4925   1.335   .     S
N4922  Co6181  1.976   1_545 S
N4922  N5062   1.349   .     S
C4923  H4924   0.950   .     S
C4923  C4994   1.379   .     S
C4925  C5093   1.374   .     S
C4925  H4926   0.950   .     S
C4927  C5096   1.372   .     S
C4927  H4928   0.949   .     S
C4927  C4929   1.372   .     S
C4929  C5095   1.375   .     S
C4929  H4930   0.949   .     S
N4931  Co4984  1.980   .     S
N4931  C4933   1.327   .     S
N4932  C4935   1.335   .     S
N4932  Co5382  1.976   .     S
N4932  N72     1.349   1_556 S
C4933  H4934   0.950   .     S
C4933  C5098   1.379   .     S
C4935  C197    1.374   1_556 S
C4935  H4936   0.950   .     S
C4937  C200    1.372   1_556 S
C4937  H4938   0.949   .     S
C4937  C4939   1.372   .     S
C4939  C199    1.375   1_556 S
C4939  H4940   0.949   .     S
N4941  Co4983  1.980   .     S
N4941  C4943   1.327   .     S
N4941  N5311   1.357   .     S
N4942  C4945   1.335   .     S
N4942  Co5082  1.976   .     S
N4942  N6112   1.349   1_545 S
C4943  H4944   0.950   .     S
C4943  C5390   1.379   .     S
C4945  C4989   1.374   .     S
C4945  H4946   0.950   .     S
C4947  C4992   1.372   .     S
C4947  H4948   0.949   .     S
C4947  C4949   1.372   .     S
C4949  C4991   1.375   .     S
C4949  H4950   0.949   .     S
N4951  Co4984  1.980   .     S
N4951  C4953   1.327   .     S
N4951  N6101   1.357   1_545 S
N4952  C4955   1.335   .     S
N4952  N5302   1.349   .     S
C4953  H4954   0.950   .     S
C4953  C4986   1.379   .     S
C4955  C5385   1.374   .     S
C4955  H4956   0.950   .     S
C4957  C5388   1.372   .     S
C4957  H4958   0.949   .     S
C4957  C4959   1.372   .     S
C4959  C5387   1.375   .     S
C4959  H4960   0.949   .     S
N4961  Co4981  1.980   .     S
N4961  C4963   1.327   .     S
N4961  N5021   1.357   .     S
N4962  C4965   1.335   .     S
N4962  Co6183  1.976   1_545 S
C4963  H4964   0.950   .     S
C4963  C5094   1.379   .     S
C4965  C4993   1.374   .     S
C4965  H4966   0.950   .     S
C4967  C4996   1.372   .     S
C4967  H4968   0.949   .     S
C4967  C4969   1.372   .     S
C4969  C4995   1.375   .     S
C4969  H4970   0.949   .     S
N4971  Co4982  1.980   .     S
N4971  C4973   1.327   .     S
N4971  N31     1.357   1_556 S
N4972  C4975   1.335   .     S
N4972  Co5384  1.976   .     S
C4973  H4974   0.950   .     S
C4973  C198    1.379   1_556 S
C4975  C5097   1.374   .     S
C4975  H4976   0.950   .     S
C4977  C5100   1.372   .     S
C4977  H4978   0.949   .     S
C4977  C4979   1.372   .     S
C4979  C5099   1.375   .     S
C4979  H4980   0.949   .     S
Co4981 N5322   1.976   .     S
Co4981 N5052   1.976   .     S
Co4982 N6132   1.976   1_545 S
Co4983 N5362   1.976   .     S
Co4984 N5002   1.976   .     S
Co4984 N6172   1.976   1_545 S
C4985  C6155   1.374   1_545 S
C4985  C4988   1.490   .     S
C4986  C6103   1.379   1_545 S
C4986  C4987   1.481   .     S
C4987  C6159   1.375   1_545 S
C4988  C6157   1.372   1_545 S
C4989  C6115   1.374   1_545 S
C4989  C4992   1.490   .     S
C4990  C6143   1.379   1_545 S
C4990  C4991   1.481   .     S
C4991  C6119   1.375   1_545 S
C4992  C6117   1.372   1_545 S
C4993  C4996   1.490   .     S
C4994  C4995   1.481   .     S
C4997  C5000   1.490   .     S
C4998  C4999   1.481   .     S
N5001  Co5081  1.980   .     S
N5001  C5003   1.327   .     S
N5001  N5451   1.357   .     S
N5002  C5005   1.335   .     S
N5002  N6252   1.349   1_545 S
C5003  H5004   0.950   .     S
C5003  C5486   1.379   .     S
C5005  C5085   1.374   .     S
C5005  H5006   0.950   .     S
C5007  C5088   1.372   .     S
C5007  H5008   0.949   .     S
C5007  C5009   1.372   .     S
C5009  C5087   1.375   .     S
C5009  H5010   0.949   .     S
N5011  Co5082  1.980   .     S
N5011  C5013   1.327   .     S
N5011  N6241   1.357   1_545 S
N5012  C5015   1.335   .     S
N5012  Co5183  1.976   .     S
N5012  N5442   1.349   .     S
C5013  H5014   0.950   .     S
C5013  C5090   1.379   .     S
C5015  C5489   1.374   .     S
C5015  H5016   0.950   .     S
C5017  C5492   1.372   .     S
C5017  H5018   0.949   .     S
C5017  C5019   1.372   .     S
C5019  C5491   1.375   .     S
C5019  H5020   0.949   .     S
N5021  Co5083  1.980   .     S
N5021  C5023   1.327   .     S
N5022  C5025   1.335   .     S
N5022  Co6281  1.976   1_545 S
N5022  N5162   1.349   .     S
C5023  H5024   0.950   .     S
C5023  C5094   1.379   .     S
C5025  C5193   1.374   .     S
C5025  H5026   0.950   .     S
C5027  C5196   1.372   .     S
C5027  H5028   0.949   .     S
C5027  C5029   1.372   .     S
C5029  C5195   1.375   .     S
C5029  H5030   0.949   .     S
N5031  Co5084  1.980   .     S
N5031  C5033   1.327   .     S
N5032  C5035   1.335   .     S
N5032  Co5482  1.976   .     S
N5032  N172    1.349   1_556 S
C5033  H5034   0.950   .     S
C5033  C5198   1.379   .     S
C5035  C297    1.374   1_556 S
C5035  H5036   0.950   .     S
C5037  C300    1.372   1_556 S
C5037  H5038   0.949   .     S
C5037  C5039   1.372   .     S
C5039  C299    1.375   1_556 S
C5039  H5040   0.949   .     S
N5041  Co5083  1.980   .     S
N5041  C5043   1.327   .     S
N5041  N5411   1.357   .     S
N5042  C5045   1.335   .     S
N5042  Co5182  1.976   .     S
N5042  N6212   1.349   1_545 S
C5043  H5044   0.950   .     S
C5043  C5490   1.379   .     S
C5045  C5089   1.374   .     S
C5045  H5046   0.950   .     S
C5047  C5092   1.372   .     S
C5047  H5048   0.949   .     S
C5047  C5049   1.372   .     S
C5049  C5091   1.375   .     S
C5049  H5050   0.949   .     S
N5051  Co5084  1.980   .     S
N5051  C5053   1.327   .     S
N5051  N6201   1.357   1_545 S
N5052  C5055   1.335   .     S
N5052  N5402   1.349   .     S
C5053  H5054   0.950   .     S
C5053  C5086   1.379   .     S
C5055  C5485   1.374   .     S
C5055  H5056   0.950   .     S
C5057  C5488   1.372   .     S
C5057  H5058   0.949   .     S
C5057  C5059   1.372   .     S
C5059  C5487   1.375   .     S
C5059  H5060   0.949   .     S
N5061  Co5081  1.980   .     S
N5061  C5063   1.327   .     S
N5061  N5121   1.357   .     S
N5062  C5065   1.335   .     S
N5062  Co6283  1.976   1_545 S
C5063  H5064   0.950   .     S
C5063  C5194   1.379   .     S
C5065  C5093   1.374   .     S
C5065  H5066   0.950   .     S
C5067  C5096   1.372   .     S
C5067  H5068   0.949   .     S
C5067  C5069   1.372   .     S
C5069  C5095   1.375   .     S
C5069  H5070   0.949   .     S
N5071  Co5082  1.980   .     S
N5071  C5073   1.327   .     S
N5071  N131    1.357   1_556 S
N5072  C5075   1.335   .     S
N5072  Co5484  1.976   .     S
C5073  H5074   0.950   .     S
C5073  C298    1.379   1_556 S
C5075  C5197   1.374   .     S
C5075  H5076   0.950   .     S
C5077  C5200   1.372   .     S
C5077  H5078   0.949   .     S
C5077  C5079   1.372   .     S
C5079  C5199   1.375   .     S
C5079  H5080   0.949   .     S
Co5081 N5422   1.976   .     S
Co5081 N5152   1.976   .     S
Co5082 N6232   1.976   1_545 S
Co5083 N5462   1.976   .     S
Co5084 N5102   1.976   .     S
Co5084 N6272   1.976   1_545 S
C5085  C6255   1.374   1_545 S
C5085  C5088   1.490   .     S
C5086  C6203   1.379   1_545 S
C5086  C5087   1.481   .     S
C5087  C6259   1.375   1_545 S
C5088  C6257   1.372   1_545 S
C5089  C6215   1.374   1_545 S
C5089  C5092   1.490   .     S
C5090  C6243   1.379   1_545 S
C5090  C5091   1.481   .     S
C5091  C6219   1.375   1_545 S
C5092  C6217   1.372   1_545 S
C5093  C5096   1.490   .     S
C5094  C5095   1.481   .     S
C5097  C5100   1.490   .     S
C5098  C5099   1.481   .     S
N5101  Co5181  1.980   .     S
N5101  C5103   1.327   .     S
N5101  N5551   1.357   .     S
N5102  C5105   1.335   .     S
N5102  N6352   1.349   1_545 S
C5103  H5104   0.950   .     S
C5103  C5586   1.379   .     S
C5105  C5185   1.374   .     S
C5105  H5106   0.950   .     S
C5107  C5188   1.372   .     S
C5107  H5108   0.949   .     S
C5107  C5109   1.372   .     S
C5109  C5187   1.375   .     S
C5109  H5110   0.949   .     S
N5111  Co5182  1.980   .     S
N5111  C5113   1.327   .     S
N5111  N6341   1.357   1_545 S
N5112  C5115   1.335   .     S
N5112  Co4883  1.976   1_655 S
N5112  N5542   1.349   .     S
C5113  H5114   0.950   .     S
C5113  C5190   1.379   .     S
C5115  C5589   1.374   .     S
C5115  H5116   0.950   .     S
C5117  C5592   1.372   .     S
C5117  H5118   0.949   .     S
C5117  C5119   1.372   .     S
C5119  C5591   1.375   .     S
C5119  H5120   0.949   .     S
N5121  Co5183  1.980   .     S
N5121  C5123   1.327   .     S
N5122  C5125   1.335   .     S
N5122  Co6381  1.976   1_545 S
N5122  N4862   1.349   1_655 S
C5123  H5124   0.950   .     S
C5123  C5194   1.379   .     S
C5125  C4893   1.374   1_655 S
C5125  H5126   0.950   .     S
C5127  C4896   1.372   1_655 S
C5127  H5128   0.949   .     S
C5127  C5129   1.372   .     S
C5129  C4895   1.375   1_655 S
C5129  H5130   0.949   .     S
N5131  Co5184  1.980   .     S
N5131  C5133   1.327   .     S
N5131  N3271   1.357   1_655 S
N5132  C5135   1.335   .     S
N5132  Co5582  1.976   .     S
N5132  N272    1.349   1_556 S
C5133  H5134   0.950   .     S
C5133  C4898   1.379   1_655 S
C5135  C397    1.374   1_556 S
C5135  H5136   0.950   .     S
C5137  C400    1.372   1_556 S
C5137  H5138   0.949   .     S
C5137  C5139   1.372   .     S
C5139  C399    1.375   1_556 S
C5139  H5140   0.949   .     S
N5141  Co5183  1.980   .     S
N5141  C5143   1.327   .     S
N5141  N5511   1.357   .     S
N5142  C5145   1.335   .     S
N5142  Co4882  1.976   1_655 S
N5142  N6312   1.349   1_545 S
C5143  H5144   0.950   .     S
C5143  C5590   1.379   .     S
C5145  C5189   1.374   .     S
C5145  H5146   0.950   .     S
C5147  C5192   1.372   .     S
C5147  H5148   0.949   .     S
C5147  C5149   1.372   .     S
C5149  C5191   1.375   .     S
C5149  H5150   0.949   .     S
N5151  Co5184  1.980   .     S
N5151  C5153   1.327   .     S
N5151  N6301   1.357   1_545 S
N5152  C5155   1.335   .     S
N5152  N5502   1.349   .     S
C5153  H5154   0.950   .     S
C5153  C5186   1.379   .     S
C5155  C5585   1.374   .     S
C5155  H5156   0.950   .     S
C5157  C5588   1.372   .     S
C5157  H5158   0.949   .     S
C5157  C5159   1.372   .     S
C5159  C5587   1.375   .     S
C5159  H5160   0.949   .     S
N5161  Co5181  1.980   .     S
N5161  C5163   1.327   .     S
N5161  N4821   1.357   1_655 S
N5162  C5165   1.335   .     S
N5162  Co6383  1.976   1_545 S
C5163  H5164   0.950   .     S
C5163  C4894   1.379   1_655 S
C5165  C5193   1.374   .     S
C5165  H5166   0.950   .     S
C5167  C5196   1.372   .     S
C5167  H5168   0.949   .     S
C5167  C5169   1.372   .     S
C5169  C5195   1.375   .     S
C5169  H5170   0.949   .     S
N5171  Co5182  1.980   .     S
N5171  C5173   1.327   .     S
N5171  N231    1.357   1_556 S
N5172  C5175   1.335   .     S
N5172  Co5584  1.976   .     S
N5172  N3232   1.349   1_655 S
C5173  H5174   0.950   .     S
C5173  C398    1.379   1_556 S
C5175  C4897   1.374   1_655 S
C5175  H5176   0.950   .     S
C5177  C4900   1.372   1_655 S
C5177  H5178   0.949   .     S
C5177  C5179   1.372   .     S
C5179  C4899   1.375   1_655 S
C5179  H5180   0.949   .     S
Co5181 N5522   1.976   .     S
Co5181 N4852   1.976   1_655 S
Co5182 N6332   1.976   1_545 S
Co5183 N5562   1.976   .     S
Co5184 N4802   1.976   1_655 S
Co5184 N6372   1.976   1_545 S
C5185  C6355   1.374   1_545 S
C5185  C5188   1.490   .     S
C5186  C6303   1.379   1_545 S
C5186  C5187   1.481   .     S
C5187  C6359   1.375   1_545 S
C5188  C6357   1.372   1_545 S
C5189  C6315   1.374   1_545 S
C5189  C5192   1.490   .     S
C5190  C6343   1.379   1_545 S
C5190  C5191   1.481   .     S
C5191  C6319   1.375   1_545 S
C5192  C6317   1.372   1_545 S
C5193  C5196   1.490   .     S
C5194  C5195   1.481   .     S
C5197  C5200   1.490   .     S
C5198  C5199   1.481   .     S
N5201  Co5281  1.980   .     S
N5201  C5203   1.327   .     S
N5201  N5651   1.357   .     S
N5202  C5205   1.335   .     S
N5202  Co5584  1.976   1_455 S
C5203  H5204   0.950   .     S
C5203  C5686   1.379   .     S
C5205  C5285   1.374   .     S
C5205  H5206   0.950   .     S
C5207  C5288   1.372   .     S
C5207  H5208   0.949   .     S
C5207  C5209   1.372   .     S
C5209  C5287   1.375   .     S
C5209  H5210   0.949   .     S
N5211  Co5282  1.980   .     S
N5211  C5213   1.327   .     S
N5212  C5215   1.335   .     S
N5212  Co5383  1.976   .     S
N5212  N5642   1.349   .     S
C5213  H5214   0.950   .     S
C5213  C5290   1.379   .     S
C5215  C5689   1.374   .     S
C5215  H5216   0.950   .     S
C5217  C5692   1.372   .     S
C5217  H5218   0.949   .     S
C5217  C5219   1.372   .     S
C5219  C5691   1.375   .     S
C5219  H5220   0.949   .     S
N5221  Co5283  1.980   .     S
N5221  C5223   1.327   .     S
N5221  N5561   1.357   1_455 S
N5222  C5225   1.335   .     S
N5222  N5362   1.349   .     S
C5223  H5224   0.950   .     S
C5223  C5294   1.379   .     S
C5225  C5393   1.374   .     S
C5225  H5226   0.950   .     S
C5227  C5396   1.372   .     S
C5227  H5228   0.949   .     S
C5227  C5229   1.372   .     S
C5229  C5395   1.375   .     S
C5229  H5230   0.949   .     S
N5231  Co5284  1.980   .     S
N5231  C5233   1.327   .     S
N5232  C5235   1.335   .     S
N5232  Co5682  1.976   .     S
N5232  N772    1.349   1_456 S
C5233  H5234   0.950   .     S
C5233  C5398   1.379   .     S
C5235  C497    1.374   1_556 S
C5235  H5236   0.950   .     S
C5237  C500    1.372   1_556 S
C5237  H5238   0.949   .     S
C5237  C5239   1.372   .     S
C5239  C499    1.375   1_556 S
C5239  H5240   0.949   .     S
N5241  Co5283  1.980   .     S
N5241  C5243   1.327   .     S
N5241  N5611   1.357   .     S
N5242  C5245   1.335   .     S
N5242  Co5382  1.976   .     S
C5243  H5244   0.950   .     S
C5243  C5690   1.379   .     S
C5245  C5289   1.374   .     S
C5245  H5246   0.950   .     S
C5247  C5292   1.372   .     S
C5247  H5248   0.949   .     S
C5247  C5249   1.372   .     S
C5249  C5291   1.375   .     S
C5249  H5250   0.949   .     S
N5251  Co5284  1.980   .     S
N5251  C5253   1.327   .     S
N5252  C5255   1.335   .     S
N5252  Co5581  1.976   1_455 S
N5252  N5602   1.349   .     S
C5253  H5254   0.950   .     S
C5253  C5286   1.379   .     S
C5255  C5685   1.374   .     S
C5255  H5256   0.950   .     S
C5257  C5688   1.372   .     S
C5257  H5258   0.949   .     S
C5257  C5259   1.372   .     S
C5259  C5687   1.375   .     S
C5259  H5260   0.949   .     S
N5261  Co5281  1.980   .     S
N5261  C5263   1.327   .     S
N5261  N5321   1.357   .     S
N5262  C5265   1.335   .     S
N5262  N5522   1.349   1_455 S
C5263  H5264   0.950   .     S
C5263  C5394   1.379   .     S
C5265  C5293   1.374   .     S
C5265  H5266   0.950   .     S
C5267  C5296   1.372   .     S
C5267  H5268   0.949   .     S
C5267  C5269   1.372   .     S
C5269  C5295   1.375   .     S
C5269  H5270   0.949   .     S
N5271  Co5282  1.980   .     S
N5271  C5273   1.327   .     S
N5271  N731    1.357   1_456 S
N5272  C5275   1.335   .     S
N5272  Co5684  1.976   .     S
C5273  H5274   0.950   .     S
C5273  C498    1.379   1_556 S
C5275  C5397   1.374   .     S
C5275  H5276   0.950   .     S
C5277  C5400   1.372   .     S
C5277  H5278   0.949   .     S
C5277  C5279   1.372   .     S
C5279  C5399   1.375   .     S
C5279  H5280   0.949   .     S
Co5281 N5622   1.976   .     S
Co5281 N5352   1.976   .     S
Co5282 N5542   1.976   1_455 S
Co5283 N5512   1.976   1_455 S
Co5283 N5662   1.976   .     S
Co5284 N5302   1.976   .     S
C5285  C5288   1.490   .     S
C5286  C5287   1.481   .     S
C5289  C5292   1.490   .     S
C5290  C5291   1.481   .     S
C5293  C5525   1.374   1_455 S
C5293  C5296   1.490   .     S
C5294  C5563   1.379   1_455 S
C5294  C5295   1.481   .     S
C5295  C5529   1.375   1_455 S
C5296  C5527   1.372   1_455 S
C5297  C5575   1.374   1_455 S
C5297  C5300   1.490   .     S
C5298  C5533   1.379   1_455 S
C5298  C5299   1.481   .     S
C5299  C5579   1.375   1_455 S
C5300  C5577   1.372   1_455 S
N5301  Co5381  1.980   .     S
N5301  C5303   1.327   .     S
N5301  N5751   1.357   .     S
N5302  C5305   1.335   .     S
C5303  H5304   0.950   .     S
C5303  C5786   1.379   .     S
C5305  C5385   1.374   .     S
C5305  H5306   0.950   .     S
C5307  C5388   1.372   .     S
C5307  H5308   0.949   .     S
C5307  C5309   1.372   .     S
C5309  C5387   1.375   .     S
C5309  H5310   0.949   .     S
N5311  Co5382  1.980   .     S
N5311  C5313   1.327   .     S
N5312  C5315   1.335   .     S
N5312  Co5483  1.976   .     S
N5312  N5742   1.349   .     S
C5313  H5314   0.950   .     S
C5313  C5390   1.379   .     S
C5315  C5789   1.374   .     S
C5315  H5316   0.950   .     S
C5317  C5792   1.372   .     S
C5317  H5318   0.949   .     S
C5317  C5319   1.372   .     S
C5319  C5791   1.375   .     S
C5319  H5320   0.949   .     S
N5321  Co5383  1.980   .     S
N5321  C5323   1.327   .     S
N5322  C5325   1.335   .     S
N5322  N5462   1.349   .     S
C5323  H5324   0.950   .     S
C5323  C5394   1.379   .     S
C5325  C5493   1.374   .     S
C5325  H5326   0.950   .     S
C5327  C5496   1.372   .     S
C5327  H5328   0.949   .     S
C5327  C5329   1.372   .     S
C5329  C5495   1.375   .     S
C5329  H5330   0.949   .     S
N5331  Co5384  1.980   .     S
N5331  C5333   1.327   .     S
N5332  C5335   1.335   .     S
N5332  Co5782  1.976   .     S
N5332  N472    1.349   1_556 S
C5333  H5334   0.950   .     S
C5333  C5498   1.379   .     S
C5335  C597    1.374   1_556 S
C5335  H5336   0.950   .     S
C5337  C600    1.372   1_556 S
C5337  H5338   0.949   .     S
C5337  C5339   1.372   .     S
C5339  C599    1.375   1_556 S
C5339  H5340   0.949   .     S
N5341  Co5383  1.980   .     S
N5341  C5343   1.327   .     S
N5341  N5711   1.357   .     S
N5342  C5345   1.335   .     S
N5342  Co5482  1.976   .     S
C5343  H5344   0.950   .     S
C5343  C5790   1.379   .     S
C5345  C5389   1.374   .     S
C5345  H5346   0.950   .     S
C5347  C5392   1.372   .     S
C5347  H5348   0.949   .     S
C5347  C5349   1.372   .     S
C5349  C5391   1.375   .     S
C5349  H5350   0.949   .     S
N5351  Co5384  1.980   .     S
N5351  C5353   1.327   .     S
N5352  C5355   1.335   .     S
N5352  N5702   1.349   .     S
C5353  H5354   0.950   .     S
C5353  C5386   1.379   .     S
C5355  C5785   1.374   .     S
C5355  H5356   0.950   .     S
C5357  C5788   1.372   .     S
C5357  H5358   0.949   .     S
C5357  C5359   1.372   .     S
C5359  C5787   1.375   .     S
C5359  H5360   0.949   .     S
N5361  Co5381  1.980   .     S
N5361  C5363   1.327   .     S
N5361  N5421   1.357   .     S
N5362  C5365   1.335   .     S
C5363  H5364   0.950   .     S
C5363  C5494   1.379   .     S
C5365  C5393   1.374   .     S
C5365  H5366   0.950   .     S
C5367  C5396   1.372   .     S
C5367  H5368   0.949   .     S
C5367  C5369   1.372   .     S
C5369  C5395   1.375   .     S
C5369  H5370   0.949   .     S
N5371  Co5382  1.980   .     S
N5371  C5373   1.327   .     S
N5371  N431    1.357   1_556 S
N5372  C5375   1.335   .     S
N5372  Co5784  1.976   .     S
C5373  H5374   0.950   .     S
C5373  C598    1.379   1_556 S
C5375  C5497   1.374   .     S
C5375  H5376   0.950   .     S
C5377  C5500   1.372   .     S
C5377  H5378   0.949   .     S
C5377  C5379   1.372   .     S
C5379  C5499   1.375   .     S
C5379  H5380   0.949   .     S
Co5381 N5722   1.976   .     S
Co5381 N5452   1.976   .     S
Co5383 N5762   1.976   .     S
Co5384 N5402   1.976   .     S
C5385  C5388   1.490   .     S
C5386  C5387   1.481   .     S
C5389  C5392   1.490   .     S
C5390  C5391   1.481   .     S
C5393  C5396   1.490   .     S
C5394  C5395   1.481   .     S
C5397  C5400   1.490   .     S
C5398  C5399   1.481   .     S
N5401  Co5481  1.980   .     S
N5401  C5403   1.327   .     S
N5401  N5851   1.357   .     S
N5402  C5405   1.335   .     S
C5403  H5404   0.950   .     S
C5403  C5886   1.379   .     S
C5405  C5485   1.374   .     S
C5405  H5406   0.950   .     S
C5407  C5488   1.372   .     S
C5407  H5408   0.949   .     S
C5407  C5409   1.372   .     S
C5409  C5487   1.375   .     S
C5409  H5410   0.949   .     S
N5411  Co5482  1.980   .     S
N5411  C5413   1.327   .     S
N5412  C5415   1.335   .     S
N5412  Co5583  1.976   .     S
N5412  N5842   1.349   .     S
C5413  H5414   0.950   .     S
C5413  C5490   1.379   .     S
C5415  C5889   1.374   .     S
C5415  H5416   0.950   .     S
C5417  C5892   1.372   .     S
C5417  H5418   0.949   .     S
C5417  C5419   1.372   .     S
C5419  C5891   1.375   .     S
C5419  H5420   0.949   .     S
N5421  Co5483  1.980   .     S
N5421  C5423   1.327   .     S
N5422  C5425   1.335   .     S
N5422  N5562   1.349   .     S
C5423  H5424   0.950   .     S
C5423  C5494   1.379   .     S
C5425  C5593   1.374   .     S
C5425  H5426   0.950   .     S
C5427  C5596   1.372   .     S
C5427  H5428   0.949   .     S
C5427  C5429   1.372   .     S
C5429  C5595   1.375   .     S
C5429  H5430   0.949   .     S
N5431  Co5484  1.980   .     S
N5431  C5433   1.327   .     S
N5432  C5435   1.335   .     S
N5432  Co5882  1.976   .     S
N5432  N572    1.349   1_556 S
C5433  H5434   0.950   .     S
C5433  C5598   1.379   .     S
C5435  C697    1.374   1_556 S
C5435  H5436   0.950   .     S
C5437  C700    1.372   1_556 S
C5437  H5438   0.949   .     S
C5437  C5439   1.372   .     S
C5439  C699    1.375   1_556 S
C5439  H5440   0.949   .     S
N5441  Co5483  1.980   .     S
N5441  C5443   1.327   .     S
N5441  N5811   1.357   .     S
N5442  C5445   1.335   .     S
N5442  Co5582  1.976   .     S
C5443  H5444   0.950   .     S
C5443  C5890   1.379   .     S
C5445  C5489   1.374   .     S
C5445  H5446   0.950   .     S
C5447  C5492   1.372   .     S
C5447  H5448   0.949   .     S
C5447  C5449   1.372   .     S
C5449  C5491   1.375   .     S
C5449  H5450   0.949   .     S
N5451  Co5484  1.980   .     S
N5451  C5453   1.327   .     S
N5452  C5455   1.335   .     S
N5452  N5802   1.349   .     S
C5453  H5454   0.950   .     S
C5453  C5486   1.379   .     S
C5455  C5885   1.374   .     S
C5455  H5456   0.950   .     S
C5457  C5888   1.372   .     S
C5457  H5458   0.949   .     S
C5457  C5459   1.372   .     S
C5459  C5887   1.375   .     S
C5459  H5460   0.949   .     S
N5461  Co5481  1.980   .     S
N5461  C5463   1.327   .     S
N5461  N5521   1.357   .     S
N5462  C5465   1.335   .     S
C5463  H5464   0.950   .     S
C5463  C5594   1.379   .     S
C5465  C5493   1.374   .     S
C5465  H5466   0.950   .     S
C5467  C5496   1.372   .     S
C5467  H5468   0.949   .     S
C5467  C5469   1.372   .     S
C5469  C5495   1.375   .     S
C5469  H5470   0.949   .     S
N5471  Co5482  1.980   .     S
N5471  C5473   1.327   .     S
N5471  N531    1.357   1_556 S
N5472  C5475   1.335   .     S
N5472  Co5884  1.976   .     S
C5473  H5474   0.950   .     S
C5473  C698    1.379   1_556 S
C5475  C5597   1.374   .     S
C5475  H5476   0.950   .     S
C5477  C5600   1.372   .     S
C5477  H5478   0.949   .     S
C5477  C5479   1.372   .     S
C5479  C5599   1.375   .     S
C5479  H5480   0.949   .     S
Co5481 N5822   1.976   .     S
Co5481 N5552   1.976   .     S
Co5483 N5862   1.976   .     S
Co5484 N5502   1.976   .     S
C5485  C5488   1.490   .     S
C5486  C5487   1.481   .     S
C5489  C5492   1.490   .     S
C5490  C5491   1.481   .     S
C5493  C5496   1.490   .     S
C5494  C5495   1.481   .     S
C5497  C5500   1.490   .     S
C5498  C5499   1.481   .     S
N5501  Co5581  1.980   .     S
N5501  C5503   1.327   .     S
N5501  N5951   1.357   .     S
N5502  C5505   1.335   .     S
C5503  H5504   0.950   .     S
C5503  C5986   1.379   .     S
C5505  C5585   1.374   .     S
C5505  H5506   0.950   .     S
C5507  C5588   1.372   .     S
C5507  H5508   0.949   .     S
C5507  C5509   1.372   .     S
C5509  C5587   1.375   .     S
C5509  H5510   0.949   .     S
N5511  Co5582  1.980   .     S
N5511  C5513   1.327   .     S
N5512  C5515   1.335   .     S
N5512  Co5283  1.976   1_655 S
N5512  N5942   1.349   .     S
C5513  H5514   0.950   .     S
C5513  C5590   1.379   .     S
C5515  C5989   1.374   .     S
C5515  H5516   0.950   .     S
C5517  C5992   1.372   .     S
C5517  H5518   0.949   .     S
C5517  C5519   1.372   .     S
C5519  C5991   1.375   .     S
C5519  H5520   0.949   .     S
N5521  Co5583  1.980   .     S
N5521  C5523   1.327   .     S
N5522  C5525   1.335   .     S
N5522  N5262   1.349   1_655 S
C5523  H5524   0.950   .     S
C5523  C5594   1.379   .     S
C5525  C5293   1.374   1_655 S
C5525  H5526   0.950   .     S
C5527  C5296   1.372   1_655 S
C5527  H5528   0.949   .     S
C5527  C5529   1.372   .     S
C5529  C5295   1.375   1_655 S
C5529  H5530   0.949   .     S
N5531  Co5584  1.980   .     S
N5531  C5533   1.327   .     S
N5531  N3671   1.357   1_655 S
N5532  C5535   1.335   .     S
N5532  Co5982  1.976   .     S
N5532  N672    1.349   1_556 S
C5533  H5534   0.950   .     S
C5533  C5298   1.379   1_655 S
C5535  C797    1.374   1_556 S
C5535  H5536   0.950   .     S
C5537  C800    1.372   1_556 S
C5537  H5538   0.949   .     S
C5537  C5539   1.372   .     S
C5539  C799    1.375   1_556 S
C5539  H5540   0.949   .     S
N5541  Co5583  1.980   .     S
N5541  C5543   1.327   .     S
N5541  N5911   1.357   .     S
N5542  C5545   1.335   .     S
N5542  Co5282  1.976   1_655 S
C5543  H5544   0.950   .     S
C5543  C5990   1.379   .     S
C5545  C5589   1.374   .     S
C5545  H5546   0.950   .     S
C5547  C5592   1.372   .     S
C5547  H5548   0.949   .     S
C5547  C5549   1.372   .     S
C5549  C5591   1.375   .     S
C5549  H5550   0.949   .     S
N5551  Co5584  1.980   .     S
N5551  C5553   1.327   .     S
N5552  C5555   1.335   .     S
N5552  N5902   1.349   .     S
C5553  H5554   0.950   .     S
C5553  C5586   1.379   .     S
C5555  C5985   1.374   .     S
C5555  H5556   0.950   .     S
C5557  C5988   1.372   .     S
C5557  H5558   0.949   .     S
C5557  C5559   1.372   .     S
C5559  C5987   1.375   .     S
C5559  H5560   0.949   .     S
N5561  Co5581  1.980   .     S
N5561  C5563   1.327   .     S
N5561  N5221   1.357   1_655 S
N5562  C5565   1.335   .     S
C5563  H5564   0.950   .     S
C5563  C5294   1.379   1_655 S
C5565  C5593   1.374   .     S
C5565  H5566   0.950   .     S
C5567  C5596   1.372   .     S
C5567  H5568   0.949   .     S
C5567  C5569   1.372   .     S
C5569  C5595   1.375   .     S
C5569  H5570   0.949   .     S
N5571  Co5582  1.980   .     S
N5571  C5573   1.327   .     S
N5571  N631    1.357   1_556 S
N5572  C5575   1.335   .     S
N5572  Co5984  1.976   .     S
N5572  N3632   1.349   1_655 S
C5573  H5574   0.950   .     S
C5573  C798    1.379   1_556 S
C5575  C5297   1.374   1_655 S
C5575  H5576   0.950   .     S
C5577  C5300   1.372   1_655 S
C5577  H5578   0.949   .     S
C5577  C5579   1.372   .     S
C5579  C5299   1.375   1_655 S
C5579  H5580   0.949   .     S
Co5581 N5922   1.976   .     S
Co5581 N5252   1.976   1_655 S
Co5583 N5962   1.976   .     S
Co5584 N5202   1.976   1_655 S
C5585  C5588   1.490   .     S
C5586  C5587   1.481   .     S
C5589  C5592   1.490   .     S
C5590  C5591   1.481   .     S
C5593  C5596   1.490   .     S
C5594  C5595   1.481   .     S
C5597  C5600   1.490   .     S
C5598  C5599   1.481   .     S
N5601  Co5681  1.980   .     S
N5601  C5603   1.327   .     S
N5601  N6051   1.357   .     S
N5602  C5605   1.335   .     S
N5602  Co5984  1.976   1_455 S
C5603  H5604   0.950   .     S
C5603  C6086   1.379   .     S
C5605  C5685   1.374   .     S
C5605  H5606   0.950   .     S
C5607  C5688   1.372   .     S
C5607  H5608   0.949   .     S
C5607  C5609   1.372   .     S
C5609  C5687   1.375   .     S
C5609  H5610   0.949   .     S
N5611  Co5682  1.980   .     S
N5611  C5613   1.327   .     S
N5612  C5615   1.335   .     S
N5612  Co5783  1.976   .     S
N5612  N6042   1.349   .     S
C5613  H5614   0.950   .     S
C5613  C5690   1.379   .     S
C5615  C6089   1.374   .     S
C5615  H5616   0.950   .     S
C5617  C6092   1.372   .     S
C5617  H5618   0.949   .     S
C5617  C5619   1.372   .     S
C5619  C6091   1.375   .     S
C5619  H5620   0.949   .     S
N5621  Co5683  1.980   .     S
N5621  C5623   1.327   .     S
N5621  N5961   1.357   1_455 S
N5622  C5625   1.335   .     S
N5622  N5762   1.349   .     S
C5623  H5624   0.950   .     S
C5623  C5694   1.379   .     S
C5625  C5793   1.374   .     S
C5625  H5626   0.950   .     S
C5627  C5796   1.372   .     S
C5627  H5628   0.949   .     S
C5627  C5629   1.372   .     S
C5629  C5795   1.375   .     S
C5629  H5630   0.949   .     S
N5631  Co5684  1.980   .     S
N5631  C5633   1.327   .     S
N5632  C5635   1.335   .     S
N5632  Co6082  1.976   .     S
N5632  N1172   1.349   1_456 S
C5633  H5634   0.950   .     S
C5633  C5798   1.379   .     S
C5635  C897    1.374   1_556 S
C5635  H5636   0.950   .     S
C5637  C900    1.372   1_556 S
C5637  H5638   0.949   .     S
C5637  C5639   1.372   .     S
C5639  C899    1.375   1_556 S
C5639  H5640   0.949   .     S
N5641  Co5683  1.980   .     S
N5641  C5643   1.327   .     S
N5641  N6011   1.357   .     S
N5642  C5645   1.335   .     S
N5642  Co5782  1.976   .     S
C5643  H5644   0.950   .     S
C5643  C6090   1.379   .     S
C5645  C5689   1.374   .     S
C5645  H5646   0.950   .     S
C5647  C5692   1.372   .     S
C5647  H5648   0.949   .     S
C5647  C5649   1.372   .     S
C5649  C5691   1.375   .     S
C5649  H5650   0.949   .     S
N5651  Co5684  1.980   .     S
N5651  C5653   1.327   .     S
N5652  C5655   1.335   .     S
N5652  Co5981  1.976   1_455 S
N5652  N6002   1.349   .     S
C5653  H5654   0.950   .     S
C5653  C5686   1.379   .     S
C5655  C6085   1.374   .     S
C5655  H5656   0.950   .     S
C5657  C6088   1.372   .     S
C5657  H5658   0.949   .     S
C5657  C5659   1.372   .     S
C5659  C6087   1.375   .     S
C5659  H5660   0.949   .     S
N5661  Co5681  1.980   .     S
N5661  C5663   1.327   .     S
N5661  N5721   1.357   .     S
N5662  C5665   1.335   .     S
N5662  N5922   1.349   1_455 S
C5663  H5664   0.950   .     S
C5663  C5794   1.379   .     S
C5665  C5693   1.374   .     S
C5665  H5666   0.950   .     S
C5667  C5696   1.372   .     S
C5667  H5668   0.949   .     S
C5667  C5669   1.372   .     S
C5669  C5695   1.375   .     S
C5669  H5670   0.949   .     S
N5671  Co5682  1.980   .     S
N5671  C5673   1.327   .     S
N5671  N1131   1.357   1_456 S
N5672  C5675   1.335   .     S
N5672  Co6084  1.976   .     S
C5673  H5674   0.950   .     S
C5673  C898    1.379   1_556 S
C5675  C5797   1.374   .     S
C5675  H5676   0.950   .     S
C5677  C5800   1.372   .     S
C5677  H5678   0.949   .     S
C5677  C5679   1.372   .     S
C5679  C5799   1.375   .     S
C5679  H5680   0.949   .     S
Co5681 N6022   1.976   .     S
Co5681 N5752   1.976   .     S
Co5682 N5942   1.976   1_455 S
Co5683 N5912   1.976   1_455 S
Co5683 N6062   1.976   .     S
Co5684 N5702   1.976   .     S
C5685  C5688   1.490   .     S
C5686  C5687   1.481   .     S
C5689  C5692   1.490   .     S
C5690  C5691   1.481   .     S
C5693  C5925   1.374   1_455 S
C5693  C5696   1.490   .     S
C5694  C5963   1.379   1_455 S
C5694  C5695   1.481   .     S
C5695  C5929   1.375   1_455 S
C5696  C5927   1.372   1_455 S
C5697  C5975   1.374   1_455 S
C5697  C5700   1.490   .     S
C5698  C5933   1.379   1_455 S
C5698  C5699   1.481   .     S
C5699  C5979   1.375   1_455 S
C5700  C5977   1.372   1_455 S
N5701  Co5781  1.980   .     S
N5701  C5703   1.327   .     S
N5701  N6151   1.357   .     S
N5702  C5705   1.335   .     S
C5703  H5704   0.950   .     S
C5703  C6186   1.379   .     S
C5705  C5785   1.374   .     S
C5705  H5706   0.950   .     S
C5707  C5788   1.372   .     S
C5707  H5708   0.949   .     S
C5707  C5709   1.372   .     S
C5709  C5787   1.375   .     S
C5709  H5710   0.949   .     S
N5711  Co5782  1.980   .     S
N5711  C5713   1.327   .     S
N5712  C5715   1.335   .     S
N5712  Co5883  1.976   .     S
N5712  N6142   1.349   .     S
C5713  H5714   0.950   .     S
C5713  C5790   1.379   .     S
C5715  C6189   1.374   .     S
C5715  H5716   0.950   .     S
C5717  C6192   1.372   .     S
C5717  H5718   0.949   .     S
C5717  C5719   1.372   .     S
C5719  C6191   1.375   .     S
C5719  H5720   0.949   .     S
N5721  Co5783  1.980   .     S
N5721  C5723   1.327   .     S
N5722  C5725   1.335   .     S
N5722  N5862   1.349   .     S
C5723  H5724   0.950   .     S
C5723  C5794   1.379   .     S
C5725  C5893   1.374   .     S
C5725  H5726   0.950   .     S
C5727  C5896   1.372   .     S
C5727  H5728   0.949   .     S
C5727  C5729   1.372   .     S
C5729  C5895   1.375   .     S
C5729  H5730   0.949   .     S
N5731  Co5784  1.980   .     S
N5731  C5733   1.327   .     S
N5732  C5735   1.335   .     S
N5732  Co6182  1.976   .     S
N5732  N872    1.349   1_556 S
C5733  H5734   0.950   .     S
C5733  C5898   1.379   .     S
C5735  C997    1.374   1_556 S
C5735  H5736   0.950   .     S
C5737  C1000   1.372   1_556 S
C5737  H5738   0.949   .     S
C5737  C5739   1.372   .     S
C5739  C999    1.375   1_556 S
C5739  H5740   0.949   .     S
N5741  Co5783  1.980   .     S
N5741  C5743   1.327   .     S
N5741  N6111   1.357   .     S
N5742  C5745   1.335   .     S
N5742  Co5882  1.976   .     S
C5743  H5744   0.950   .     S
C5743  C6190   1.379   .     S
C5745  C5789   1.374   .     S
C5745  H5746   0.950   .     S
C5747  C5792   1.372   .     S
C5747  H5748   0.949   .     S
C5747  C5749   1.372   .     S
C5749  C5791   1.375   .     S
C5749  H5750   0.949   .     S
N5751  Co5784  1.980   .     S
N5751  C5753   1.327   .     S
N5752  C5755   1.335   .     S
N5752  N6102   1.349   .     S
C5753  H5754   0.950   .     S
C5753  C5786   1.379   .     S
C5755  C6185   1.374   .     S
C5755  H5756   0.950   .     S
C5757  C6188   1.372   .     S
C5757  H5758   0.949   .     S
C5757  C5759   1.372   .     S
C5759  C6187   1.375   .     S
C5759  H5760   0.949   .     S
N5761  Co5781  1.980   .     S
N5761  C5763   1.327   .     S
N5761  N5821   1.357   .     S
N5762  C5765   1.335   .     S
C5763  H5764   0.950   .     S
C5763  C5894   1.379   .     S
C5765  C5793   1.374   .     S
C5765  H5766   0.950   .     S
C5767  C5796   1.372   .     S
C5767  H5768   0.949   .     S
C5767  C5769   1.372   .     S
C5769  C5795   1.375   .     S
C5769  H5770   0.949   .     S
N5771  Co5782  1.980   .     S
N5771  C5773   1.327   .     S
N5771  N831    1.357   1_556 S
N5772  C5775   1.335   .     S
N5772  Co6184  1.976   .     S
C5773  H5774   0.950   .     S
C5773  C998    1.379   1_556 S
C5775  C5897   1.374   .     S
C5775  H5776   0.950   .     S
C5777  C5900   1.372   .     S
C5777  H5778   0.949   .     S
C5777  C5779   1.372   .     S
C5779  C5899   1.375   .     S
C5779  H5780   0.949   .     S
Co5781 N6122   1.976   .     S
Co5781 N5852   1.976   .     S
Co5783 N6162   1.976   .     S
Co5784 N5802   1.976   .     S
C5785  C5788   1.490   .     S
C5786  C5787   1.481   .     S
C5789  C5792   1.490   .     S
C5790  C5791   1.481   .     S
C5793  C5796   1.490   .     S
C5794  C5795   1.481   .     S
C5797  C5800   1.490   .     S
C5798  C5799   1.481   .     S
N5801  Co5881  1.980   .     S
N5801  C5803   1.327   .     S
N5801  N6251   1.357   .     S
N5802  C5805   1.335   .     S
C5803  H5804   0.950   .     S
C5803  C6286   1.379   .     S
C5805  C5885   1.374   .     S
C5805  H5806   0.950   .     S
C5807  C5888   1.372   .     S
C5807  H5808   0.949   .     S
C5807  C5809   1.372   .     S
C5809  C5887   1.375   .     S
C5809  H5810   0.949   .     S
N5811  Co5882  1.980   .     S
N5811  C5813   1.327   .     S
N5812  C5815   1.335   .     S
N5812  Co5983  1.976   .     S
N5812  N6242   1.349   .     S
C5813  H5814   0.950   .     S
C5813  C5890   1.379   .     S
C5815  C6289   1.374   .     S
C5815  H5816   0.950   .     S
C5817  C6292   1.372   .     S
C5817  H5818   0.949   .     S
C5817  C5819   1.372   .     S
C5819  C6291   1.375   .     S
C5819  H5820   0.949   .     S
N5821  Co5883  1.980   .     S
N5821  C5823   1.327   .     S
N5822  C5825   1.335   .     S
N5822  N5962   1.349   .     S
C5823  H5824   0.950   .     S
C5823  C5894   1.379   .     S
C5825  C5993   1.374   .     S
C5825  H5826   0.950   .     S
C5827  C5996   1.372   .     S
C5827  H5828   0.949   .     S
C5827  C5829   1.372   .     S
C5829  C5995   1.375   .     S
C5829  H5830   0.949   .     S
N5831  Co5884  1.980   .     S
N5831  C5833   1.327   .     S
N5832  C5835   1.335   .     S
N5832  Co6282  1.976   .     S
N5832  N972    1.349   1_556 S
C5833  H5834   0.950   .     S
C5833  C5998   1.379   .     S
C5835  C1097   1.374   1_556 S
C5835  H5836   0.950   .     S
C5837  C1100   1.372   1_556 S
C5837  H5838   0.949   .     S
C5837  C5839   1.372   .     S
C5839  C1099   1.375   1_556 S
C5839  H5840   0.949   .     S
N5841  Co5883  1.980   .     S
N5841  C5843   1.327   .     S
N5841  N6211   1.357   .     S
N5842  C5845   1.335   .     S
N5842  Co5982  1.976   .     S
C5843  H5844   0.950   .     S
C5843  C6290   1.379   .     S
C5845  C5889   1.374   .     S
C5845  H5846   0.950   .     S
C5847  C5892   1.372   .     S
C5847  H5848   0.949   .     S
C5847  C5849   1.372   .     S
C5849  C5891   1.375   .     S
C5849  H5850   0.949   .     S
N5851  Co5884  1.980   .     S
N5851  C5853   1.327   .     S
N5852  C5855   1.335   .     S
N5852  N6202   1.349   .     S
C5853  H5854   0.950   .     S
C5853  C5886   1.379   .     S
C5855  C6285   1.374   .     S
C5855  H5856   0.950   .     S
C5857  C6288   1.372   .     S
C5857  H5858   0.949   .     S
C5857  C5859   1.372   .     S
C5859  C6287   1.375   .     S
C5859  H5860   0.949   .     S
N5861  Co5881  1.980   .     S
N5861  C5863   1.327   .     S
N5861  N5921   1.357   .     S
N5862  C5865   1.335   .     S
C5863  H5864   0.950   .     S
C5863  C5994   1.379   .     S
C5865  C5893   1.374   .     S
C5865  H5866   0.950   .     S
C5867  C5896   1.372   .     S
C5867  H5868   0.949   .     S
C5867  C5869   1.372   .     S
C5869  C5895   1.375   .     S
C5869  H5870   0.949   .     S
N5871  Co5882  1.980   .     S
N5871  C5873   1.327   .     S
N5871  N931    1.357   1_556 S
N5872  C5875   1.335   .     S
N5872  Co6284  1.976   .     S
C5873  H5874   0.950   .     S
C5873  C1098   1.379   1_556 S
C5875  C5997   1.374   .     S
C5875  H5876   0.950   .     S
C5877  C6000   1.372   .     S
C5877  H5878   0.949   .     S
C5877  C5879   1.372   .     S
C5879  C5999   1.375   .     S
C5879  H5880   0.949   .     S
Co5881 N6222   1.976   .     S
Co5881 N5952   1.976   .     S
Co5883 N6262   1.976   .     S
Co5884 N5902   1.976   .     S
C5885  C5888   1.490   .     S
C5886  C5887   1.481   .     S
C5889  C5892   1.490   .     S
C5890  C5891   1.481   .     S
C5893  C5896   1.490   .     S
C5894  C5895   1.481   .     S
C5897  C5900   1.490   .     S
C5898  C5899   1.481   .     S
N5901  Co5981  1.980   .     S
N5901  C5903   1.327   .     S
N5901  N6351   1.357   .     S
N5902  C5905   1.335   .     S
C5903  H5904   0.950   .     S
C5903  C6386   1.379   .     S
C5905  C5985   1.374   .     S
C5905  H5906   0.950   .     S
C5907  C5988   1.372   .     S
C5907  H5908   0.949   .     S
C5907  C5909   1.372   .     S
C5909  C5987   1.375   .     S
C5909  H5910   0.949   .     S
N5911  Co5982  1.980   .     S
N5911  C5913   1.327   .     S
N5912  C5915   1.335   .     S
N5912  Co5683  1.976   1_655 S
N5912  N6342   1.349   .     S
C5913  H5914   0.950   .     S
C5913  C5990   1.379   .     S
C5915  C6389   1.374   .     S
C5915  H5916   0.950   .     S
C5917  C6392   1.372   .     S
C5917  H5918   0.949   .     S
C5917  C5919   1.372   .     S
C5919  C6391   1.375   .     S
C5919  H5920   0.949   .     S
N5921  Co5983  1.980   .     S
N5921  C5923   1.327   .     S
N5922  C5925   1.335   .     S
N5922  N5662   1.349   1_655 S
C5923  H5924   0.950   .     S
C5923  C5994   1.379   .     S
C5925  C5693   1.374   1_655 S
C5925  H5926   0.950   .     S
C5927  C5696   1.372   1_655 S
C5927  H5928   0.949   .     S
C5927  C5929   1.372   .     S
C5929  C5695   1.375   1_655 S
C5929  H5930   0.949   .     S
N5931  Co5984  1.980   .     S
N5931  C5933   1.327   .     S
N5931  N4071   1.357   1_655 S
N5932  C5935   1.335   .     S
N5932  Co6382  1.976   .     S
N5932  N1072   1.349   1_556 S
C5933  H5934   0.950   .     S
C5933  C5698   1.379   1_655 S
C5935  C1197   1.374   1_556 S
C5935  H5936   0.950   .     S
C5937  C1200   1.372   1_556 S
C5937  H5938   0.949   .     S
C5937  C5939   1.372   .     S
C5939  C1199   1.375   1_556 S
C5939  H5940   0.949   .     S
N5941  Co5983  1.980   .     S
N5941  C5943   1.327   .     S
N5941  N6311   1.357   .     S
N5942  C5945   1.335   .     S
N5942  Co5682  1.976   1_655 S
C5943  H5944   0.950   .     S
C5943  C6390   1.379   .     S
C5945  C5989   1.374   .     S
C5945  H5946   0.950   .     S
C5947  C5992   1.372   .     S
C5947  H5948   0.949   .     S
C5947  C5949   1.372   .     S
C5949  C5991   1.375   .     S
C5949  H5950   0.949   .     S
N5951  Co5984  1.980   .     S
N5951  C5953   1.327   .     S
N5952  C5955   1.335   .     S
N5952  N6302   1.349   .     S
C5953  H5954   0.950   .     S
C5953  C5986   1.379   .     S
C5955  C6385   1.374   .     S
C5955  H5956   0.950   .     S
C5957  C6388   1.372   .     S
C5957  H5958   0.949   .     S
C5957  C5959   1.372   .     S
C5959  C6387   1.375   .     S
C5959  H5960   0.949   .     S
N5961  Co5981  1.980   .     S
N5961  C5963   1.327   .     S
N5961  N5621   1.357   1_655 S
N5962  C5965   1.335   .     S
C5963  H5964   0.950   .     S
C5963  C5694   1.379   1_655 S
C5965  C5993   1.374   .     S
C5965  H5966   0.950   .     S
C5967  C5996   1.372   .     S
C5967  H5968   0.949   .     S
C5967  C5969   1.372   .     S
C5969  C5995   1.375   .     S
C5969  H5970   0.949   .     S
N5971  Co5982  1.980   .     S
N5971  C5973   1.327   .     S
N5971  N1031   1.357   1_556 S
N5972  C5975   1.335   .     S
N5972  Co6384  1.976   .     S
N5972  N4032   1.349   1_655 S
C5973  H5974   0.950   .     S
C5973  C1198   1.379   1_556 S
C5975  C5697   1.374   1_655 S
C5975  H5976   0.950   .     S
C5977  C5700   1.372   1_655 S
C5977  H5978   0.949   .     S
C5977  C5979   1.372   .     S
C5979  C5699   1.375   1_655 S
C5979  H5980   0.949   .     S
Co5981 N6322   1.976   .     S
Co5981 N5652   1.976   1_655 S
Co5983 N6362   1.976   .     S
Co5984 N5602   1.976   1_655 S
C5985  C5988   1.490   .     S
C5986  C5987   1.481   .     S
C5989  C5992   1.490   .     S
C5990  C5991   1.481   .     S
C5993  C5996   1.490   .     S
C5994  C5995   1.481   .     S
C5997  C6000   1.490   .     S
C5998  C5999   1.481   .     S
N6001  Co6081  1.980   .     S
N6001  C6003   1.327   .     S
N6001  N4851   1.357   1_565 S
N6002  C6005   1.335   .     S
N6002  Co6384  1.976   1_455 S
C6003  H6004   0.950   .     S
C6003  C4886   1.379   1_565 S
C6005  C6085   1.374   .     S
C6005  H6006   0.950   .     S
C6007  C6088   1.372   .     S
C6007  H6008   0.949   .     S
C6007  C6009   1.372   .     S
C6009  C6087   1.375   .     S
C6009  H6010   0.949   .     S
N6011  Co6082  1.980   .     S
N6011  C6013   1.327   .     S
N6012  C6015   1.335   .     S
N6012  Co6183  1.976   .     S
N6012  N4842   1.349   1_565 S
C6013  H6014   0.950   .     S
C6013  C6090   1.379   .     S
C6015  C4889   1.374   1_565 S
C6015  H6016   0.950   .     S
C6017  C4892   1.372   1_565 S
C6017  H6018   0.949   .     S
C6017  C6019   1.372   .     S
C6019  C4891   1.375   1_565 S
C6019  H6020   0.949   .     S
N6021  Co6083  1.980   .     S
N6021  C6023   1.327   .     S
N6021  N6361   1.357   1_455 S
N6022  C6025   1.335   .     S
N6022  N6162   1.349   .     S
C6023  H6024   0.950   .     S
C6023  C6094   1.379   .     S
C6025  C6193   1.374   .     S
C6025  H6026   0.950   .     S
C6027  C6196   1.372   .     S
C6027  H6028   0.949   .     S
C6027  C6029   1.372   .     S
C6029  C6195   1.375   .     S
C6029  H6030   0.949   .     S
N6031  Co6084  1.980   .     S
N6031  C6033   1.327   .     S
N6032  C6035   1.335   .     S
N6032  Co4882  1.976   1_565 S
N6032  N1572   1.349   1_456 S
C6033  H6034   0.950   .     S
C6033  C6198   1.379   .     S
C6035  C1297   1.374   1_556 S
C6035  H6036   0.950   .     S
C6037  C1300   1.372   1_556 S
C6037  H6038   0.949   .     S
C6037  C6039   1.372   .     S
C6039  C1299   1.375   1_556 S
C6039  H6040   0.949   .     S
N6041  Co6083  1.980   .     S
N6041  C6043   1.327   .     S
N6041  N4811   1.357   1_565 S
N6042  C6045   1.335   .     S
N6042  Co6182  1.976   .     S
C6043  H6044   0.950   .     S
C6043  C4890   1.379   1_565 S
C6045  C6089   1.374   .     S
C6045  H6046   0.950   .     S
C6047  C6092   1.372   .     S
C6047  H6048   0.949   .     S
C6047  C6049   1.372   .     S
C6049  C6091   1.375   .     S
C6049  H6050   0.949   .     S
N6051  Co6084  1.980   .     S
N6051  C6053   1.327   .     S
N6052  C6055   1.335   .     S
N6052  Co6381  1.976   1_455 S
N6052  N4802   1.349   1_565 S
C6053  H6054   0.950   .     S
C6053  C6086   1.379   .     S
C6055  C4885   1.374   1_565 S
C6055  H6056   0.950   .     S
C6057  C4888   1.372   1_565 S
C6057  H6058   0.949   .     S
C6057  C6059   1.372   .     S
C6059  C4887   1.375   1_565 S
C6059  H6060   0.949   .     S
N6061  Co6081  1.980   .     S
N6061  C6063   1.327   .     S
N6061  N6121   1.357   .     S
N6062  C6065   1.335   .     S
N6062  N6322   1.349   1_455 S
C6063  H6064   0.950   .     S
C6063  C6194   1.379   .     S
C6065  C6093   1.374   .     S
C6065  H6066   0.950   .     S
C6067  C6096   1.372   .     S
C6067  H6068   0.949   .     S
C6067  C6069   1.372   .     S
C6069  C6095   1.375   .     S
C6069  H6070   0.949   .     S
N6071  Co6082  1.980   .     S
N6071  C6073   1.327   .     S
N6071  N1531   1.357   1_456 S
N6072  C6075   1.335   .     S
N6072  Co4884  1.976   1_565 S
C6073  H6074   0.950   .     S
C6073  C1298   1.379   1_556 S
C6075  C6197   1.374   .     S
C6075  H6076   0.950   .     S
C6077  C6200   1.372   .     S
C6077  H6078   0.949   .     S
C6077  C6079   1.372   .     S
C6079  C6199   1.375   .     S
C6079  H6080   0.949   .     S
Co6081 N4822   1.976   1_565 S
Co6081 N6152   1.976   .     S
Co6082 N6342   1.976   1_455 S
Co6083 N6312   1.976   1_455 S
Co6083 N4862   1.976   1_565 S
Co6084 N6102   1.976   .     S
C6085  C6088   1.490   .     S
C6086  C6087   1.481   .     S
C6089  C6092   1.490   .     S
C6090  C6091   1.481   .     S
C6093  C6325   1.374   1_455 S
C6093  C6096   1.490   .     S
C6094  C6363   1.379   1_455 S
C6094  C6095   1.481   .     S
C6095  C6329   1.375   1_455 S
C6096  C6327   1.372   1_455 S
C6097  C6375   1.374   1_455 S
C6097  C6100   1.490   .     S
C6098  C6333   1.379   1_455 S
C6098  C6099   1.481   .     S
C6099  C6379   1.375   1_455 S
C6100  C6377   1.372   1_455 S
N6101  Co6181  1.980   .     S
N6101  C6103   1.327   .     S
N6101  N4951   1.357   1_565 S
N6102  C6105   1.335   .     S
C6103  H6104   0.950   .     S
C6103  C4986   1.379   1_565 S
C6105  C6185   1.374   .     S
C6105  H6106   0.950   .     S
C6107  C6188   1.372   .     S
C6107  H6108   0.949   .     S
C6107  C6109   1.372   .     S
C6109  C6187   1.375   .     S
C6109  H6110   0.949   .     S
N6111  Co6182  1.980   .     S
N6111  C6113   1.327   .     S
N6112  C6115   1.335   .     S
N6112  Co6283  1.976   .     S
N6112  N4942   1.349   1_565 S
C6113  H6114   0.950   .     S
C6113  C6190   1.379   .     S
C6115  C4989   1.374   1_565 S
C6115  H6116   0.950   .     S
C6117  C4992   1.372   1_565 S
C6117  H6118   0.949   .     S
C6117  C6119   1.372   .     S
C6119  C4991   1.375   1_565 S
C6119  H6120   0.949   .     S
N6121  Co6183  1.980   .     S
N6121  C6123   1.327   .     S
N6122  C6125   1.335   .     S
N6122  N6262   1.349   .     S
C6123  H6124   0.950   .     S
C6123  C6194   1.379   .     S
C6125  C6293   1.374   .     S
C6125  H6126   0.950   .     S
C6127  C6296   1.372   .     S
C6127  H6128   0.949   .     S
C6127  C6129   1.372   .     S
C6129  C6295   1.375   .     S
C6129  H6130   0.949   .     S
N6131  Co6184  1.980   .     S
N6131  C6133   1.327   .     S
N6132  C6135   1.335   .     S
N6132  Co4982  1.976   1_565 S
N6132  N1272   1.349   1_556 S
C6133  H6134   0.950   .     S
C6133  C6298   1.379   .     S
C6135  C1397   1.374   1_556 S
C6135  H6136   0.950   .     S
C6137  C1400   1.372   1_556 S
C6137  H6138   0.949   .     S
C6137  C6139   1.372   .     S
C6139  C1399   1.375   1_556 S
C6139  H6140   0.949   .     S
N6141  Co6183  1.980   .     S
N6141  C6143   1.327   .     S
N6141  N4911   1.357   1_565 S
N6142  C6145   1.335   .     S
N6142  Co6282  1.976   .     S
C6143  H6144   0.950   .     S
C6143  C4990   1.379   1_565 S
C6145  C6189   1.374   .     S
C6145  H6146   0.950   .     S
C6147  C6192   1.372   .     S
C6147  H6148   0.949   .     S
C6147  C6149   1.372   .     S
C6149  C6191   1.375   .     S
C6149  H6150   0.949   .     S
N6151  Co6184  1.980   .     S
N6151  C6153   1.327   .     S
N6152  C6155   1.335   .     S
N6152  N4902   1.349   1_565 S
C6153  H6154   0.950   .     S
C6153  C6186   1.379   .     S
C6155  C4985   1.374   1_565 S
C6155  H6156   0.950   .     S
C6157  C4988   1.372   1_565 S
C6157  H6158   0.949   .     S
C6157  C6159   1.372   .     S
C6159  C4987   1.375   1_565 S
C6159  H6160   0.949   .     S
N6161  Co6181  1.980   .     S
N6161  C6163   1.327   .     S
N6161  N6221   1.357   .     S
N6162  C6165   1.335   .     S
C6163  H6164   0.950   .     S
C6163  C6294   1.379   .     S
C6165  C6193   1.374   .     S
C6165  H6166   0.950   .     S
C6167  C6196   1.372   .     S
C6167  H6168   0.949   .     S
C6167  C6169   1.372   .     S
C6169  C6195   1.375   .     S
C6169  H6170   0.949   .     S
N6171  Co6182  1.980   .     S
N6171  C6173   1.327   .     S
N6171  N1231   1.357   1_556 S
N6172  C6175   1.335   .     S
N6172  Co4984  1.976   1_565 S
C6173  H6174   0.950   .     S
C6173  C1398   1.379   1_556 S
C6175  C6297   1.374   .     S
C6175  H6176   0.950   .     S
C6177  C6300   1.372   .     S
C6177  H6178   0.949   .     S
C6177  C6179   1.372   .     S
C6179  C6299   1.375   .     S
C6179  H6180   0.949   .     S
Co6181 N4922   1.976   1_565 S
Co6181 N6252   1.976   .     S
Co6183 N4962   1.976   1_565 S
Co6184 N6202   1.976   .     S
C6185  C6188   1.490   .     S
C6186  C6187   1.481   .     S
C6189  C6192   1.490   .     S
C6190  C6191   1.481   .     S
C6193  C6196   1.490   .     S
C6194  C6195   1.481   .     S
C6197  C6200   1.490   .     S
C6198  C6199   1.481   .     S
N6201  Co6281  1.980   .     S
N6201  C6203   1.327   .     S
N6201  N5051   1.357   1_565 S
N6202  C6205   1.335   .     S
C6203  H6204   0.950   .     S
C6203  C5086   1.379   1_565 S
C6205  C6285   1.374   .     S
C6205  H6206   0.950   .     S
C6207  C6288   1.372   .     S
C6207  H6208   0.949   .     S
C6207  C6209   1.372   .     S
C6209  C6287   1.375   .     S
C6209  H6210   0.949   .     S
N6211  Co6282  1.980   .     S
N6211  C6213   1.327   .     S
N6212  C6215   1.335   .     S
N6212  Co6383  1.976   .     S
N6212  N5042   1.349   1_565 S
C6213  H6214   0.950   .     S
C6213  C6290   1.379   .     S
C6215  C5089   1.374   1_565 S
C6215  H6216   0.950   .     S
C6217  C5092   1.372   1_565 S
C6217  H6218   0.949   .     S
C6217  C6219   1.372   .     S
C6219  C5091   1.375   1_565 S
C6219  H6220   0.949   .     S
N6221  Co6283  1.980   .     S
N6221  C6223   1.327   .     S
N6222  C6225   1.335   .     S
N6222  N6362   1.349   .     S
C6223  H6224   0.950   .     S
C6223  C6294   1.379   .     S
C6225  C6393   1.374   .     S
C6225  H6226   0.950   .     S
C6227  C6396   1.372   .     S
C6227  H6228   0.949   .     S
C6227  C6229   1.372   .     S
C6229  C6395   1.375   .     S
C6229  H6230   0.949   .     S
N6231  Co6284  1.980   .     S
N6231  C6233   1.327   .     S
N6232  C6235   1.335   .     S
N6232  Co5082  1.976   1_565 S
N6232  N1372   1.349   1_556 S
C6233  H6234   0.950   .     S
C6233  C6398   1.379   .     S
C6235  C1497   1.374   1_556 S
C6235  H6236   0.950   .     S
C6237  C1500   1.372   1_556 S
C6237  H6238   0.949   .     S
C6237  C6239   1.372   .     S
C6239  C1499   1.375   1_556 S
C6239  H6240   0.949   .     S
N6241  Co6283  1.980   .     S
N6241  C6243   1.327   .     S
N6241  N5011   1.357   1_565 S
N6242  C6245   1.335   .     S
N6242  Co6382  1.976   .     S
C6243  H6244   0.950   .     S
C6243  C5090   1.379   1_565 S
C6245  C6289   1.374   .     S
C6245  H6246   0.950   .     S
C6247  C6292   1.372   .     S
C6247  H6248   0.949   .     S
C6247  C6249   1.372   .     S
C6249  C6291   1.375   .     S
C6249  H6250   0.949   .     S
N6251  Co6284  1.980   .     S
N6251  C6253   1.327   .     S
N6252  C6255   1.335   .     S
N6252  N5002   1.349   1_565 S
C6253  H6254   0.950   .     S
C6253  C6286   1.379   .     S
C6255  C5085   1.374   1_565 S
C6255  H6256   0.950   .     S
C6257  C5088   1.372   1_565 S
C6257  H6258   0.949   .     S
C6257  C6259   1.372   .     S
C6259  C5087   1.375   1_565 S
C6259  H6260   0.949   .     S
N6261  Co6281  1.980   .     S
N6261  C6263   1.327   .     S
N6261  N6321   1.357   .     S
N6262  C6265   1.335   .     S
C6263  H6264   0.950   .     S
C6263  C6394   1.379   .     S
C6265  C6293   1.374   .     S
C6265  H6266   0.950   .     S
C6267  C6296   1.372   .     S
C6267  H6268   0.949   .     S
C6267  C6269   1.372   .     S
C6269  C6295   1.375   .     S
C6269  H6270   0.949   .     S
N6271  Co6282  1.980   .     S
N6271  C6273   1.327   .     S
N6271  N1331   1.357   1_556 S
N6272  C6275   1.335   .     S
N6272  Co5084  1.976   1_565 S
C6273  H6274   0.950   .     S
C6273  C1498   1.379   1_556 S
C6275  C6397   1.374   .     S
C6275  H6276   0.950   .     S
C6277  C6400   1.372   .     S
C6277  H6278   0.949   .     S
C6277  C6279   1.372   .     S
C6279  C6399   1.375   .     S
C6279  H6280   0.949   .     S
Co6281 N5022   1.976   1_565 S
Co6281 N6352   1.976   .     S
Co6283 N5062   1.976   1_565 S
Co6284 N6302   1.976   .     S
C6285  C6288   1.490   .     S
C6286  C6287   1.481   .     S
C6289  C6292   1.490   .     S
C6290  C6291   1.481   .     S
C6293  C6296   1.490   .     S
C6294  C6295   1.481   .     S
C6297  C6300   1.490   .     S
C6298  C6299   1.481   .     S
N6301  Co6381  1.980   .     S
N6301  C6303   1.327   .     S
N6301  N5151   1.357   1_565 S
N6302  C6305   1.335   .     S
C6303  H6304   0.950   .     S
C6303  C5186   1.379   1_565 S
C6305  C6385   1.374   .     S
C6305  H6306   0.950   .     S
C6307  C6388   1.372   .     S
C6307  H6308   0.949   .     S
C6307  C6309   1.372   .     S
C6309  C6387   1.375   .     S
C6309  H6310   0.949   .     S
N6311  Co6382  1.980   .     S
N6311  C6313   1.327   .     S
N6312  C6315   1.335   .     S
N6312  Co6083  1.976   1_655 S
N6312  N5142   1.349   1_565 S
C6313  H6314   0.950   .     S
C6313  C6390   1.379   .     S
C6315  C5189   1.374   1_565 S
C6315  H6316   0.950   .     S
C6317  C5192   1.372   1_565 S
C6317  H6318   0.949   .     S
C6317  C6319   1.372   .     S
C6319  C5191   1.375   1_565 S
C6319  H6320   0.949   .     S
N6321  Co6383  1.980   .     S
N6321  C6323   1.327   .     S
N6322  C6325   1.335   .     S
N6322  N6062   1.349   1_655 S
C6323  H6324   0.950   .     S
C6323  C6394   1.379   .     S
C6325  C6093   1.374   1_655 S
C6325  H6326   0.950   .     S
C6327  C6096   1.372   1_655 S
C6327  H6328   0.949   .     S
C6327  C6329   1.372   .     S
C6329  C6095   1.375   1_655 S
C6329  H6330   0.949   .     S
N6331  Co6384  1.980   .     S
N6331  C6333   1.327   .     S
N6331  N4471   1.357   1_655 S
N6332  C6335   1.335   .     S
N6332  Co5182  1.976   1_565 S
N6332  N1472   1.349   1_556 S
C6333  H6334   0.950   .     S
C6333  C6098   1.379   1_655 S
C6335  C1597   1.374   1_556 S
C6335  H6336   0.950   .     S
C6337  C1600   1.372   1_556 S
C6337  H6338   0.949   .     S
C6337  C6339   1.372   .     S
C6339  C1599   1.375   1_556 S
C6339  H6340   0.949   .     S
N6341  Co6383  1.980   .     S
N6341  C6343   1.327   .     S
N6341  N5111   1.357   1_565 S
N6342  C6345   1.335   .     S
N6342  Co6082  1.976   1_655 S
C6343  H6344   0.950   .     S
C6343  C5190   1.379   1_565 S
C6345  C6389   1.374   .     S
C6345  H6346   0.950   .     S
C6347  C6392   1.372   .     S
C6347  H6348   0.949   .     S
C6347  C6349   1.372   .     S
C6349  C6391   1.375   .     S
C6349  H6350   0.949   .     S
N6351  Co6384  1.980   .     S
N6351  C6353   1.327   .     S
N6352  C6355   1.335   .     S
N6352  N5102   1.349   1_565 S
C6353  H6354   0.950   .     S
C6353  C6386   1.379   .     S
C6355  C5185   1.374   1_565 S
C6355  H6356   0.950   .     S
C6357  C5188   1.372   1_565 S
C6357  H6358   0.949   .     S
C6357  C6359   1.372   .     S
C6359  C5187   1.375   1_565 S
C6359  H6360   0.949   .     S
N6361  Co6381  1.980   .     S
N6361  C6363   1.327   .     S
N6361  N6021   1.357   1_655 S
N6362  C6365   1.335   .     S
C6363  H6364   0.950   .     S
C6363  C6094   1.379   1_655 S
C6365  C6393   1.374   .     S
C6365  H6366   0.950   .     S
C6367  C6396   1.372   .     S
C6367  H6368   0.949   .     S
C6367  C6369   1.372   .     S
C6369  C6395   1.375   .     S
C6369  H6370   0.949   .     S
N6371  Co6382  1.980   .     S
N6371  C6373   1.327   .     S
N6371  N1431   1.357   1_556 S
N6372  C6375   1.335   .     S
N6372  Co5184  1.976   1_565 S
N6372  N4432   1.349   1_655 S
C6373  H6374   0.950   .     S
C6373  C1598   1.379   1_556 S
C6375  C6097   1.374   1_655 S
C6375  H6376   0.950   .     S
C6377  C6100   1.372   1_655 S
C6377  H6378   0.949   .     S
C6377  C6379   1.372   .     S
C6379  C6099   1.375   1_655 S
C6379  H6380   0.949   .     S
Co6381 N5122   1.976   1_565 S
Co6381 N6052   1.976   1_655 S
Co6383 N5162   1.976   1_565 S
Co6384 N6002   1.976   1_655 S
C6385  C6388   1.490   .     S
C6386  C6387   1.481   .     S
C6389  C6392   1.490   .     S
C6390  C6391   1.481   .     S
C6393  C6396   1.490   .     S
C6394  C6395   1.481   .     S
C6397  C6400   1.490   .     S
C6398  C6399   1.481   .     S
