
#######################################################################
#
#                 Cambridge Crystallographic Data Centre
#                                CCDC 
#
#######################################################################
#
# If this CIF has been generated from an entry in the Cambridge 
# Structural Database, then it will include bibliographic, chemical, 
# crystal, experimental, refinement or atomic coordinate data resulting 
# from the CCDC's data processing and validation procedures.
#
#######################################################################

data_CoBDP_open
_symmetry_cell_setting           monoclinic
_symmetry_space_group_name_H-M   'C 2/c'
_symmetry_Int_Tables_number      15
_space_group_name_Hall           '-C 2yn'
loop_
_symmetry_equiv_pos_site_id
_symmetry_equiv_pos_as_xyz
1 -x,-y,-z
2 -x,y,1/2-z
3 1/2-x,1/2-y,-z
4 1/2-x,1/2+y,1/2-z
5 x,-y,1/2+z
6 x,y,z
7 1/2+x,1/2-y,1/2+z
8 1/2+x,1/2+y,z
_cell_length_a                   21.7628(25)
_cell_length_b                   15.2203(22)
_cell_length_c                   6.98265(70)
_cell_angle_alpha                90
_cell_angle_beta                 97.367(10)
_cell_angle_gamma                90
_cell_volume                     2293.81
loop_
_atom_site_label
_atom_site_type_symbol
_atom_site_fract_x
_atom_site_fract_y
_atom_site_fract_z
C7 C 0.6624417 0.1862906 0.99367703
C1 C 0.6061245 0.1078061 0.8507728
C2 C 0.599318 0.1548105 1.145331
C3 C 0.6335333 0.1596758 0.995794727
C4 C 0.6913501 0.2129054 0.991559334
C5 C 0.7820007 0.2459965 0.8402578
C6 C 0.7233508 0.2089019 0.8318171
N1 N 0.5549696 0.0708837 0.91068052
N2 N 0.550763 0.099934 1.09272751
H1 H 0.6202345 0.0989244 0.7290026
H2 H 0.6078387 0.1845275 1.2654433
H5 H 0.8038716 0.2432603 0.7310814
H6 H 0.7051373 0.1808133 0.716872
C7 C 0.8375583 0.3137094 1.00632297
C1 C 0.8938755 0.3921939 1.1492272
C2 C 0.900682 0.3451895 0.854669
C3 C 0.8664667 0.3403242 1.004205273
C4 C 0.8086499 0.2870946 1.008440666
C5 C 0.7179993 0.2540035 1.1597422
C6 C 0.7766492 0.2910981 1.1681829
N1 N 0.9450304 0.4291163 1.08931948
N2 N 0.949237 0.400066 0.90727249
H1 H 0.8797655 0.4010756 1.2709974
H2 H 0.8921613 0.3154725 0.7345567
H5 H 0.6961284 0.2567397 1.2689186
H6 H 0.7948627 0.3191867 1.283128
Co Co 0.5 -0.01922(60) 0.75
N1 N 0.4450304 0.0708837 0.58931948
N2 N 0.449237 -0.099934 0.90727249
N2 N 0.550763 -0.099934 0.59272751
Co Co 0.5 0.01922(60) 1.25
Co Co 1.0 0.51922(60) 1.25
Co Co 1.0 0.48078(60) 0.75
C7 C 0.6624417 0.8137094 0.49367703
C1 C 0.6061245 0.8921939 0.3507728
C2 C 0.599318 0.8451895 0.645331
C3 C 0.6335333 0.8403242 0.495794727
C4 C 0.6913501 0.7870946 0.491559334
C5 C 0.7820007 0.7540035 0.3402578
C6 C 0.7233508 0.7910981 0.3318171
N1 N 0.5549696 0.9291163 0.41068052
N2 N 0.550763 0.900066 0.59272751
H1 H 0.6202345 0.9010756 0.2290026
H2 H 0.6078387 0.8154725 0.7654433
H5 H 0.8038716 0.7567397 0.2310814
H6 H 0.7051373 0.8191867 0.216872
C7 C 0.8375583 0.6862906 0.50632297
C1 C 0.8938755 0.6078061 0.6492272
C2 C 0.900682 0.6548105 0.354669
C3 C 0.8664667 0.6596758 0.504205273
C4 C 0.8086499 0.7129054 0.508440666
C5 C 0.7179993 0.7459965 0.6597422
C6 C 0.7766492 0.7089019 0.6681829
N1 N 0.9450304 0.5708837 0.58931948
N2 N 0.949237 0.599934 0.40727249
H1 H 0.8797655 0.5989244 0.7709974
H2 H 0.8921613 0.6845275 0.2345567
H5 H 0.6961284 0.7432603 0.7689186
H6 H 0.7948627 0.6808133 0.783128
Co Co 0.5 1.01922(60) 0.25
N1 N 0.4450304 0.9291163 0.08931948
N2 N 0.449237 1.099934 0.40727249
N2 N 0.550763 1.099934 0.09272751
Co Co 0.5 0.98078(60) 0.75
Co Co 1.0 0.51922(60) 0.25
C7 C 0.1624417 0.6862906 0.99367703
C1 C 0.1061245 0.6078061 0.8507728
C2 C 0.099318 0.6548105 1.145331
C3 C 0.1335333 0.6596758 0.995794727
C4 C 0.1913501 0.7129054 0.991559334
C5 C 0.2820007 0.7459965 0.8402578
C6 C 0.2233508 0.7089019 0.8318171
N1 N 0.0549696 0.5708837 0.91068052
N2 N 0.050763 0.599934 1.09272751
H1 H 0.1202345 0.5989244 0.7290026
H2 H 0.1078387 0.6845275 1.2654433
H5 H 0.3038716 0.7432603 0.7310814
H6 H 0.2051373 0.6808133 0.716872
C7 C 0.3375583 0.8137094 1.00632297
C1 C 0.3938755 0.8921939 1.1492272
C2 C 0.400682 0.8451895 0.854669
C3 C 0.3664667 0.8403242 1.004205273
C4 C 0.3086499 0.7870946 1.008440666
C5 C 0.2179993 0.7540035 1.1597422
C6 C 0.2766492 0.7910981 1.1681829
N1 N 0.4450304 0.9291163 1.08931948
N2 N 0.449237 0.900066 0.90727249
H1 H 0.3797655 0.9010756 1.2709974
H2 H 0.3921613 0.8154725 0.7345567
H5 H 0.1961284 0.7567397 1.2689186
H6 H 0.2948627 0.8191867 1.283128
Co Co 0.0 0.48078(60) 0.75
N1 N -0.0549696 0.5708837 0.58931948
N2 N -0.050763 0.400066 0.90727249
N2 N 0.050763 0.400066 0.59272751
Co Co 0.0 0.51922(60) 1.25
Co Co 0.5 1.01922(60) 1.25
C7 C 0.1624417 0.3137094 0.49367703
C1 C 0.1061245 0.3921939 0.3507728
C2 C 0.099318 0.3451895 0.645331
C3 C 0.1335333 0.3403242 0.495794727
C4 C 0.1913501 0.2870946 0.491559334
C5 C 0.2820007 0.2540035 0.3402578
C6 C 0.2233508 0.2910981 0.3318171
N1 N 0.0549696 0.4291163 0.41068052
H1 H 0.1202345 0.4010756 0.2290026
H2 H 0.1078387 0.3154725 0.7654433
H5 H 0.3038716 0.2567397 0.2310814
H6 H 0.2051373 0.3191867 0.216872
C7 C 0.3375583 0.1862906 0.50632297
C1 C 0.3938755 0.1078061 0.6492272
C2 C 0.400682 0.1548105 0.354669
C3 C 0.3664667 0.1596758 0.504205273
C4 C 0.3086499 0.2129054 0.508440666
C5 C 0.2179993 0.2459965 0.6597422
C6 C 0.2766492 0.2089019 0.6681829
N2 N 0.449237 0.099934 0.40727249
H1 H 0.3797655 0.0989244 0.7709974
H2 H 0.3921613 0.1845275 0.2345567
H5 H 0.1961284 0.2432603 0.7689186
H6 H 0.2948627 0.1808133 0.783128
Co Co 0.0 0.51922(60) 0.25
N1 N -0.0549696 0.4291163 0.08931948
N2 N -0.050763 0.599934 0.40727249
N2 N 0.050763 0.599934 0.09272751
Co Co 0.5 0.01922(60) 0.25
C7 C 0.3375583 0.8137094 0.00632297
C1 C 0.3938755 0.8921939 0.1492272
C2 C 0.400682 0.8451895 -0.145331
C3 C 0.3664667 0.8403242 0.004205273
C4 C 0.3086499 0.7870946 0.008440666
C5 C 0.2179993 0.7540035 0.1597422
C6 C 0.2766492 0.7910981 0.1681829
N2 N 0.449237 0.900066 -0.09272751
H1 H 0.3797655 0.9010756 0.2709974
H2 H 0.3921613 0.8154725 -0.2654433
H5 H 0.1961284 0.7567397 0.2689186
H6 H 0.2948627 0.8191867 0.283128
C7 C 0.1624417 0.6862906 -0.00632297
C1 C 0.1061245 0.6078061 -0.1492272
C2 C 0.099318 0.6548105 0.145331
C3 C 0.1335333 0.6596758 -0.004205273
C4 C 0.1913501 0.7129054 -0.008440666
C5 C 0.2820007 0.7459965 -0.1597422
C6 C 0.2233508 0.7089019 -0.1681829
N1 N 0.0549696 0.5708837 -0.08931948
H1 H 0.1202345 0.5989244 -0.2709974
H2 H 0.1078387 0.6845275 0.2654433
H5 H 0.3038716 0.7432603 -0.2689186
H6 H 0.2051373 0.6808133 -0.283128
Co Co 0.5 0.98078(60) -0.25
Co Co 0.0 0.48078(60) -0.25
N1 N 1.0549696 0.5708837 0.91068052
N2 N 1.050763 0.400066 0.59272751
C7 C 0.8375583 0.3137094 0.00632297
C1 C 0.8938755 0.3921939 0.1492272
C2 C 0.900682 0.3451895 -0.145331
C3 C 0.8664667 0.3403242 0.004205273
C4 C 0.8086499 0.2870946 0.008440666
C5 C 0.7179993 0.2540035 0.1597422
C6 C 0.7766492 0.2910981 0.1681829
N1 N 0.9450304 0.4291163 0.08931948
N2 N 0.949237 0.400066 -0.09272751
H1 H 0.8797655 0.4010756 0.2709974
H2 H 0.8921613 0.3154725 -0.2654433
H5 H 0.6961284 0.2567397 0.2689186
H6 H 0.7948627 0.3191867 0.283128
C7 C 0.6624417 0.1862906 -0.00632297
C1 C 0.6061245 0.1078061 -0.1492272
C2 C 0.599318 0.1548105 0.145331
C3 C 0.6335333 0.1596758 -0.004205273
C4 C 0.6913501 0.2129054 -0.008440666
C5 C 0.7820007 0.2459965 -0.1597422
C6 C 0.7233508 0.2089019 -0.1681829
N1 N 0.5549696 0.0708837 -0.08931948
N2 N 0.550763 0.099934 0.09272751
H1 H 0.6202345 0.0989244 -0.2709974
H2 H 0.6078387 0.1845275 0.2654433
H5 H 0.8038716 0.2432603 -0.2689186
H6 H 0.7051373 0.1808133 -0.283128
N1 N 1.0549696 0.4291163 0.41068052
N2 N 1.050763 0.599934 0.09272751
Co Co 1.0 0.48078(60) -0.25
Co Co 0.5 -0.01922(60) -0.25

#END
