
#######################################################################
#
#                 Cambridge Crystallographic Data Centre
#                                CCDC 
#
#######################################################################
#
# If this CIF has been generated from an entry in the Cambridge 
# Structural Database, then it will include bibliographic, chemical, 
# crystal, experimental, refinement or atomic coordinate data resulting 
# from the CCDC's data processing and validation procedures.
#
#######################################################################

data_CoBDP_open
_symmetry_cell_setting           monoclinic
_symmetry_space_group_name_H-M   'C 2/c'
_symmetry_Int_Tables_number      15
_space_group_name_Hall           '-C 2yn'
loop_
_symmetry_equiv_pos_site_id
_symmetry_equiv_pos_as_xyz
1 -x,-y,-z
2 -x,y,1/2-z
3 1/2-x,1/2-y,-z
4 1/2-x,1/2+y,1/2-z
5 x,-y,1/2+z
6 x,y,z
7 1/2+x,1/2-y,1/2+z
8 1/2+x,1/2+y,z
_cell_length_a                   21.7628(25)
_cell_length_b                   15.2203(22)
_cell_length_c                   6.98265(70)
_cell_angle_alpha                90
_cell_angle_beta                 97.367(10)
_cell_angle_gamma                90
_cell_volume                     2293.81
loop_
_atom_site_label
_atom_site_type_symbol
_atom_site_fract_x
_atom_site_fract_y
_atom_site_fract_z
C7 C 0.6624417 0.1862906 0.99367703
C1 C 0.6061245 0.1078061 0.8507728
C2 C 0.599318 0.1548105 1.145331
C3 C 0.6335333 0.1596758 0.995794727
C4 C 0.6913501 0.2129054 0.991559334
C5 C 0.7820007 0.2459965 0.8402578
C6 C 0.7233508 0.2089019 0.8318171
N1 N 0.5549696 0.0708837 0.91068052
N2 N 0.550763 0.099934 1.09272751
H1 H 0.6202345 0.0989244 0.7290026
H2 H 0.6078387 0.1845275 1.2654433
H5 H 0.8038716 0.2432603 0.7310814
H6 H 0.7051373 0.1808133 0.716872
C7 C 0.8375583 0.3137094 1.00632297
C1 C 0.8938755 0.3921939 1.1492272
C2 C 0.900682 0.3451895 0.854669
C3 C 0.8664667 0.3403242 1.004205273
C4 C 0.8086499 0.2870946 1.008440666
C5 C 0.7179993 0.2540035 1.1597422
C6 C 0.7766492 0.2910981 1.1681829
N1 N 0.9450304 0.4291163 1.08931948
N2 N 0.949237 0.400066 0.90727249
H1 H 0.8797655 0.4010756 1.2709974
H2 H 0.8921613 0.3154725 0.7345567
H5 H 0.6961284 0.2567397 1.2689186
H6 H 0.7948627 0.3191867 1.283128
Co Co 0.5 -0.01922(60) 0.75
N1 N 0.4450304 0.0708837 0.58931948
N2 N 0.449237 -0.099934 0.90727249
N2 N 0.550763 -0.099934 0.59272751
Co Co 0.5 0.01922(60) 1.25
Co Co 1.0 0.51922(60) 1.25
Co Co 1.0 0.48078(60) 0.75
C7 C 0.6624417 0.1862906 1.99367703
C1 C 0.6061245 0.1078061 1.8507728
C2 C 0.599318 0.1548105 2.145331
C3 C 0.6335333 0.1596758 1.995794727
C4 C 0.6913501 0.2129054 1.991559334
C5 C 0.7820007 0.2459965 1.8402578
C6 C 0.7233508 0.2089019 1.8318171
N1 N 0.5549696 0.0708837 1.91068052
N2 N 0.550763 0.099934 2.09272751
H1 H 0.6202345 0.0989244 1.7290026
H2 H 0.6078387 0.1845275 2.2654433
H5 H 0.8038716 0.2432603 1.7310814
H6 H 0.7051373 0.1808133 1.716872
C7 C 0.8375583 0.3137094 2.00632297
C1 C 0.8938755 0.3921939 2.1492272
C2 C 0.900682 0.3451895 1.854669
C3 C 0.8664667 0.3403242 2.004205273
C4 C 0.8086499 0.2870946 2.008440666
C5 C 0.7179993 0.2540035 2.1597422
C6 C 0.7766492 0.2910981 2.1681829
N1 N 0.9450304 0.4291163 2.08931948
N2 N 0.949237 0.400066 1.90727249
H1 H 0.8797655 0.4010756 2.2709974
H2 H 0.8921613 0.3154725 1.7345567
H5 H 0.6961284 0.2567397 2.2689186
H6 H 0.7948627 0.3191867 2.283128
Co Co 0.5 -0.01922(60) 1.75
N1 N 0.4450304 0.0708837 1.58931948
N2 N 0.449237 -0.099934 1.90727249
N2 N 0.550763 -0.099934 1.59272751
Co Co 0.5 0.01922(60) 2.25
Co Co 1.0 0.51922(60) 2.25
Co Co 1.0 0.48078(60) 1.75
C7 C 0.6624417 0.1862906 2.99367703
C1 C 0.6061245 0.1078061 2.8507728
C2 C 0.599318 0.1548105 3.145331
C3 C 0.6335333 0.1596758 2.995794727
C4 C 0.6913501 0.2129054 2.991559334
C5 C 0.7820007 0.2459965 2.8402578
C6 C 0.7233508 0.2089019 2.8318171
N1 N 0.5549696 0.0708837 2.91068052
N2 N 0.550763 0.099934 3.09272751
H1 H 0.6202345 0.0989244 2.7290026
H2 H 0.6078387 0.1845275 3.2654433
H5 H 0.8038716 0.2432603 2.7310814
H6 H 0.7051373 0.1808133 2.716872
C7 C 0.8375583 0.3137094 3.00632297
C1 C 0.8938755 0.3921939 3.1492272
C2 C 0.900682 0.3451895 2.854669
C3 C 0.8664667 0.3403242 3.004205273
C4 C 0.8086499 0.2870946 3.008440666
C5 C 0.7179993 0.2540035 3.1597422
C6 C 0.7766492 0.2910981 3.1681829
N1 N 0.9450304 0.4291163 3.08931948
N2 N 0.949237 0.400066 2.90727249
H1 H 0.8797655 0.4010756 3.2709974
H2 H 0.8921613 0.3154725 2.7345567
H5 H 0.6961284 0.2567397 3.2689186
H6 H 0.7948627 0.3191867 3.283128
Co Co 0.5 -0.01922(60) 2.75
N1 N 0.4450304 0.0708837 2.58931948
N2 N 0.449237 -0.099934 2.90727249
N2 N 0.550763 -0.099934 2.59272751
Co Co 0.5 0.01922(60) 3.25
Co Co 1.0 0.51922(60) 3.25
Co Co 1.0 0.48078(60) 2.75
C7 C 0.6624417 0.1862906 3.99367703
C1 C 0.6061245 0.1078061 3.8507728
C2 C 0.599318 0.1548105 4.145331
C3 C 0.6335333 0.1596758 3.995794727
C4 C 0.6913501 0.2129054 3.991559334
C5 C 0.7820007 0.2459965 3.8402578
C6 C 0.7233508 0.2089019 3.8318171
N1 N 0.5549696 0.0708837 3.91068052
N2 N 0.550763 0.099934 4.09272751
H1 H 0.6202345 0.0989244 3.7290026
H2 H 0.6078387 0.1845275 4.2654433
H5 H 0.8038716 0.2432603 3.7310814
H6 H 0.7051373 0.1808133 3.716872
C7 C 0.8375583 0.3137094 4.00632297
C1 C 0.8938755 0.3921939 4.1492272
C2 C 0.900682 0.3451895 3.854669
C3 C 0.8664667 0.3403242 4.004205273
C4 C 0.8086499 0.2870946 4.008440666
C5 C 0.7179993 0.2540035 4.1597422
C6 C 0.7766492 0.2910981 4.1681829
N1 N 0.9450304 0.4291163 4.08931948
N2 N 0.949237 0.400066 3.90727249
H1 H 0.8797655 0.4010756 4.2709974
H2 H 0.8921613 0.3154725 3.7345567
H5 H 0.6961284 0.2567397 4.2689186
H6 H 0.7948627 0.3191867 4.283128
Co Co 0.5 -0.01922(60) 3.75
N1 N 0.4450304 0.0708837 3.58931948
N2 N 0.449237 -0.099934 3.90727249
N2 N 0.550763 -0.099934 3.59272751
Co Co 0.5 0.01922(60) 4.25
Co Co 1.0 0.51922(60) 4.25
Co Co 1.0 0.48078(60) 3.75
C7 C 0.6624417 1.1862906 0.99367703
C1 C 0.6061245 1.1078061 0.8507728
C2 C 0.599318 1.1548105 1.145331
C3 C 0.6335333 1.1596758 0.995794727
C4 C 0.6913501 1.2129054 0.991559334
C5 C 0.7820007 1.2459965 0.8402578
C6 C 0.7233508 1.2089019 0.8318171
N1 N 0.5549696 1.0708837 0.91068052
N2 N 0.550763 1.099934 1.09272751
H1 H 0.6202345 1.0989244 0.7290026
H2 H 0.6078387 1.1845275 1.2654433
H5 H 0.8038716 1.2432603 0.7310814
H6 H 0.7051373 1.1808133 0.716872
C7 C 0.8375583 1.3137094 1.00632297
C1 C 0.8938755 1.3921939 1.1492272
C2 C 0.900682 1.3451895 0.854669
C3 C 0.8664667 1.3403242 1.004205273
C4 C 0.8086499 1.2870946 1.008440666
C5 C 0.7179993 1.2540035 1.1597422
C6 C 0.7766492 1.2910981 1.1681829
N1 N 0.9450304 1.4291163 1.08931948
N2 N 0.949237 1.400066 0.90727249
H1 H 0.8797655 1.4010756 1.2709974
H2 H 0.8921613 1.3154725 0.7345567
H5 H 0.6961284 1.2567397 1.2689186
H6 H 0.7948627 1.3191867 1.283128
Co Co 0.5 0.98078(60) 0.75
N1 N 0.4450304 1.0708837 0.58931948
N2 N 0.449237 0.900066 0.90727249
N2 N 0.550763 0.900066 0.59272751
Co Co 0.5 1.01922(60) 1.25
Co Co 1.0 1.51922(60) 1.25
Co Co 1.0 1.48078(60) 0.75
C7 C 0.6624417 1.1862906 1.99367703
C1 C 0.6061245 1.1078061 1.8507728
C2 C 0.599318 1.1548105 2.145331
C3 C 0.6335333 1.1596758 1.995794727
C4 C 0.6913501 1.2129054 1.991559334
C5 C 0.7820007 1.2459965 1.8402578
C6 C 0.7233508 1.2089019 1.8318171
N1 N 0.5549696 1.0708837 1.91068052
N2 N 0.550763 1.099934 2.09272751
H1 H 0.6202345 1.0989244 1.7290026
H2 H 0.6078387 1.1845275 2.2654433
H5 H 0.8038716 1.2432603 1.7310814
H6 H 0.7051373 1.1808133 1.716872
C7 C 0.8375583 1.3137094 2.00632297
C1 C 0.8938755 1.3921939 2.1492272
C2 C 0.900682 1.3451895 1.854669
C3 C 0.8664667 1.3403242 2.004205273
C4 C 0.8086499 1.2870946 2.008440666
C5 C 0.7179993 1.2540035 2.1597422
C6 C 0.7766492 1.2910981 2.1681829
N1 N 0.9450304 1.4291163 2.08931948
N2 N 0.949237 1.400066 1.90727249
H1 H 0.8797655 1.4010756 2.2709974
H2 H 0.8921613 1.3154725 1.7345567
H5 H 0.6961284 1.2567397 2.2689186
H6 H 0.7948627 1.3191867 2.283128
Co Co 0.5 0.98078(60) 1.75
N1 N 0.4450304 1.0708837 1.58931948
N2 N 0.449237 0.900066 1.90727249
N2 N 0.550763 0.900066 1.59272751
Co Co 0.5 1.01922(60) 2.25
Co Co 1.0 1.51922(60) 2.25
Co Co 1.0 1.48078(60) 1.75
C7 C 0.6624417 1.1862906 2.99367703
C1 C 0.6061245 1.1078061 2.8507728
C2 C 0.599318 1.1548105 3.145331
C3 C 0.6335333 1.1596758 2.995794727
C4 C 0.6913501 1.2129054 2.991559334
C5 C 0.7820007 1.2459965 2.8402578
C6 C 0.7233508 1.2089019 2.8318171
N1 N 0.5549696 1.0708837 2.91068052
N2 N 0.550763 1.099934 3.09272751
H1 H 0.6202345 1.0989244 2.7290026
H2 H 0.6078387 1.1845275 3.2654433
H5 H 0.8038716 1.2432603 2.7310814
H6 H 0.7051373 1.1808133 2.716872
C7 C 0.8375583 1.3137094 3.00632297
C1 C 0.8938755 1.3921939 3.1492272
C2 C 0.900682 1.3451895 2.854669
C3 C 0.8664667 1.3403242 3.004205273
C4 C 0.8086499 1.2870946 3.008440666
C5 C 0.7179993 1.2540035 3.1597422
C6 C 0.7766492 1.2910981 3.1681829
N1 N 0.9450304 1.4291163 3.08931948
N2 N 0.949237 1.400066 2.90727249
H1 H 0.8797655 1.4010756 3.2709974
H2 H 0.8921613 1.3154725 2.7345567
H5 H 0.6961284 1.2567397 3.2689186
H6 H 0.7948627 1.3191867 3.283128
Co Co 0.5 0.98078(60) 2.75
N1 N 0.4450304 1.0708837 2.58931948
N2 N 0.449237 0.900066 2.90727249
N2 N 0.550763 0.900066 2.59272751
Co Co 0.5 1.01922(60) 3.25
Co Co 1.0 1.51922(60) 3.25
Co Co 1.0 1.48078(60) 2.75
C7 C 0.6624417 1.1862906 3.99367703
C1 C 0.6061245 1.1078061 3.8507728
C2 C 0.599318 1.1548105 4.145331
C3 C 0.6335333 1.1596758 3.995794727
C4 C 0.6913501 1.2129054 3.991559334
C5 C 0.7820007 1.2459965 3.8402578
C6 C 0.7233508 1.2089019 3.8318171
N1 N 0.5549696 1.0708837 3.91068052
N2 N 0.550763 1.099934 4.09272751
H1 H 0.6202345 1.0989244 3.7290026
H2 H 0.6078387 1.1845275 4.2654433
H5 H 0.8038716 1.2432603 3.7310814
H6 H 0.7051373 1.1808133 3.716872
C7 C 0.8375583 1.3137094 4.00632297
C1 C 0.8938755 1.3921939 4.1492272
C2 C 0.900682 1.3451895 3.854669
C3 C 0.8664667 1.3403242 4.004205273
C4 C 0.8086499 1.2870946 4.008440666
C5 C 0.7179993 1.2540035 4.1597422
C6 C 0.7766492 1.2910981 4.1681829
N1 N 0.9450304 1.4291163 4.08931948
N2 N 0.949237 1.400066 3.90727249
H1 H 0.8797655 1.4010756 4.2709974
H2 H 0.8921613 1.3154725 3.7345567
H5 H 0.6961284 1.2567397 4.2689186
H6 H 0.7948627 1.3191867 4.283128
Co Co 0.5 0.98078(60) 3.75
N1 N 0.4450304 1.0708837 3.58931948
N2 N 0.449237 0.900066 3.90727249
N2 N 0.550763 0.900066 3.59272751
Co Co 0.5 1.01922(60) 4.25
Co Co 1.0 1.51922(60) 4.25
Co Co 1.0 1.48078(60) 3.75
C7 C 0.6624417 2.1862906 0.99367703
C1 C 0.6061245 2.1078061 0.8507728
C2 C 0.599318 2.1548105 1.145331
C3 C 0.6335333 2.1596758 0.995794727
C4 C 0.6913501 2.2129054 0.991559334
C5 C 0.7820007 2.2459965 0.8402578
C6 C 0.7233508 2.2089019 0.8318171
N1 N 0.5549696 2.0708837 0.91068052
N2 N 0.550763 2.099934 1.09272751
H1 H 0.6202345 2.0989244 0.7290026
H2 H 0.6078387 2.1845275 1.2654433
H5 H 0.8038716 2.2432603 0.7310814
H6 H 0.7051373 2.1808133 0.716872
C7 C 0.8375583 2.3137094 1.00632297
C1 C 0.8938755 2.3921939 1.1492272
C2 C 0.900682 2.3451895 0.854669
C3 C 0.8664667 2.3403242 1.004205273
C4 C 0.8086499 2.2870946 1.008440666
C5 C 0.7179993 2.2540035 1.1597422
C6 C 0.7766492 2.2910981 1.1681829
N1 N 0.9450304 2.4291163 1.08931948
N2 N 0.949237 2.400066 0.90727249
H1 H 0.8797655 2.4010756 1.2709974
H2 H 0.8921613 2.3154725 0.7345567
H5 H 0.6961284 2.2567397 1.2689186
H6 H 0.7948627 2.3191867 1.283128
Co Co 0.5 1.98078(60) 0.75
N1 N 0.4450304 2.0708837 0.58931948
N2 N 0.449237 1.900066 0.90727249
N2 N 0.550763 1.900066 0.59272751
Co Co 0.5 2.01922(60) 1.25
Co Co 1.0 2.51922(60) 1.25
Co Co 1.0 2.48078(60) 0.75
C7 C 0.6624417 2.1862906 1.99367703
C1 C 0.6061245 2.1078061 1.8507728
C2 C 0.599318 2.1548105 2.145331
C3 C 0.6335333 2.1596758 1.995794727
C4 C 0.6913501 2.2129054 1.991559334
C5 C 0.7820007 2.2459965 1.8402578
C6 C 0.7233508 2.2089019 1.8318171
N1 N 0.5549696 2.0708837 1.91068052
N2 N 0.550763 2.099934 2.09272751
H1 H 0.6202345 2.0989244 1.7290026
H2 H 0.6078387 2.1845275 2.2654433
H5 H 0.8038716 2.2432603 1.7310814
H6 H 0.7051373 2.1808133 1.716872
C7 C 0.8375583 2.3137094 2.00632297
C1 C 0.8938755 2.3921939 2.1492272
C2 C 0.900682 2.3451895 1.854669
C3 C 0.8664667 2.3403242 2.004205273
C4 C 0.8086499 2.2870946 2.008440666
C5 C 0.7179993 2.2540035 2.1597422
C6 C 0.7766492 2.2910981 2.1681829
N1 N 0.9450304 2.4291163 2.08931948
N2 N 0.949237 2.400066 1.90727249
H1 H 0.8797655 2.4010756 2.2709974
H2 H 0.8921613 2.3154725 1.7345567
H5 H 0.6961284 2.2567397 2.2689186
H6 H 0.7948627 2.3191867 2.283128
Co Co 0.5 1.98078(60) 1.75
N1 N 0.4450304 2.0708837 1.58931948
N2 N 0.449237 1.900066 1.90727249
N2 N 0.550763 1.900066 1.59272751
Co Co 0.5 2.01922(60) 2.25
Co Co 1.0 2.51922(60) 2.25
Co Co 1.0 2.48078(60) 1.75
C7 C 0.6624417 2.1862906 2.99367703
C1 C 0.6061245 2.1078061 2.8507728
C2 C 0.599318 2.1548105 3.145331
C3 C 0.6335333 2.1596758 2.995794727
C4 C 0.6913501 2.2129054 2.991559334
C5 C 0.7820007 2.2459965 2.8402578
C6 C 0.7233508 2.2089019 2.8318171
N1 N 0.5549696 2.0708837 2.91068052
N2 N 0.550763 2.099934 3.09272751
H1 H 0.6202345 2.0989244 2.7290026
H2 H 0.6078387 2.1845275 3.2654433
H5 H 0.8038716 2.2432603 2.7310814
H6 H 0.7051373 2.1808133 2.716872
C7 C 0.8375583 2.3137094 3.00632297
C1 C 0.8938755 2.3921939 3.1492272
C2 C 0.900682 2.3451895 2.854669
C3 C 0.8664667 2.3403242 3.004205273
C4 C 0.8086499 2.2870946 3.008440666
C5 C 0.7179993 2.2540035 3.1597422
C6 C 0.7766492 2.2910981 3.1681829
N1 N 0.9450304 2.4291163 3.08931948
N2 N 0.949237 2.400066 2.90727249
H1 H 0.8797655 2.4010756 3.2709974
H2 H 0.8921613 2.3154725 2.7345567
H5 H 0.6961284 2.2567397 3.2689186
H6 H 0.7948627 2.3191867 3.283128
Co Co 0.5 1.98078(60) 2.75
N1 N 0.4450304 2.0708837 2.58931948
N2 N 0.449237 1.900066 2.90727249
N2 N 0.550763 1.900066 2.59272751
Co Co 0.5 2.01922(60) 3.25
Co Co 1.0 2.51922(60) 3.25
Co Co 1.0 2.48078(60) 2.75
C7 C 0.6624417 2.1862906 3.99367703
C1 C 0.6061245 2.1078061 3.8507728
C2 C 0.599318 2.1548105 4.145331
C3 C 0.6335333 2.1596758 3.995794727
C4 C 0.6913501 2.2129054 3.991559334
C5 C 0.7820007 2.2459965 3.8402578
C6 C 0.7233508 2.2089019 3.8318171
N1 N 0.5549696 2.0708837 3.91068052
N2 N 0.550763 2.099934 4.09272751
H1 H 0.6202345 2.0989244 3.7290026
H2 H 0.6078387 2.1845275 4.2654433
H5 H 0.8038716 2.2432603 3.7310814
H6 H 0.7051373 2.1808133 3.716872
C7 C 0.8375583 2.3137094 4.00632297
C1 C 0.8938755 2.3921939 4.1492272
C2 C 0.900682 2.3451895 3.854669
C3 C 0.8664667 2.3403242 4.004205273
C4 C 0.8086499 2.2870946 4.008440666
C5 C 0.7179993 2.2540035 4.1597422
C6 C 0.7766492 2.2910981 4.1681829
N1 N 0.9450304 2.4291163 4.08931948
N2 N 0.949237 2.400066 3.90727249
H1 H 0.8797655 2.4010756 4.2709974
H2 H 0.8921613 2.3154725 3.7345567
H5 H 0.6961284 2.2567397 4.2689186
H6 H 0.7948627 2.3191867 4.283128
Co Co 0.5 1.98078(60) 3.75
N1 N 0.4450304 2.0708837 3.58931948
N2 N 0.449237 1.900066 3.90727249
N2 N 0.550763 1.900066 3.59272751
Co Co 0.5 2.01922(60) 4.25
Co Co 1.0 2.51922(60) 4.25
Co Co 1.0 2.48078(60) 3.75
C7 C 0.6624417 3.1862906 0.99367703
C1 C 0.6061245 3.1078061 0.8507728
C2 C 0.599318 3.1548105 1.145331
C3 C 0.6335333 3.1596758 0.995794727
C4 C 0.6913501 3.2129054 0.991559334
C5 C 0.7820007 3.2459965 0.8402578
C6 C 0.7233508 3.2089019 0.8318171
N1 N 0.5549696 3.0708837 0.91068052
N2 N 0.550763 3.099934 1.09272751
H1 H 0.6202345 3.0989244 0.7290026
H2 H 0.6078387 3.1845275 1.2654433
H5 H 0.8038716 3.2432603 0.7310814
H6 H 0.7051373 3.1808133 0.716872
C7 C 0.8375583 3.3137094 1.00632297
C1 C 0.8938755 3.3921939 1.1492272
C2 C 0.900682 3.3451895 0.854669
C3 C 0.8664667 3.3403242 1.004205273
C4 C 0.8086499 3.2870946 1.008440666
C5 C 0.7179993 3.2540035 1.1597422
C6 C 0.7766492 3.2910981 1.1681829
N1 N 0.9450304 3.4291163 1.08931948
N2 N 0.949237 3.400066 0.90727249
H1 H 0.8797655 3.4010756 1.2709974
H2 H 0.8921613 3.3154725 0.7345567
H5 H 0.6961284 3.2567397 1.2689186
H6 H 0.7948627 3.3191867 1.283128
Co Co 0.5 2.98078(60) 0.75
N1 N 0.4450304 3.0708837 0.58931948
N2 N 0.449237 2.900066 0.90727249
N2 N 0.550763 2.900066 0.59272751
Co Co 0.5 3.01922(60) 1.25
Co Co 1.0 3.51922(60) 1.25
Co Co 1.0 3.48078(60) 0.75
C7 C 0.6624417 3.1862906 1.99367703
C1 C 0.6061245 3.1078061 1.8507728
C2 C 0.599318 3.1548105 2.145331
C3 C 0.6335333 3.1596758 1.995794727
C4 C 0.6913501 3.2129054 1.991559334
C5 C 0.7820007 3.2459965 1.8402578
C6 C 0.7233508 3.2089019 1.8318171
N1 N 0.5549696 3.0708837 1.91068052
N2 N 0.550763 3.099934 2.09272751
H1 H 0.6202345 3.0989244 1.7290026
H2 H 0.6078387 3.1845275 2.2654433
H5 H 0.8038716 3.2432603 1.7310814
H6 H 0.7051373 3.1808133 1.716872
C7 C 0.8375583 3.3137094 2.00632297
C1 C 0.8938755 3.3921939 2.1492272
C2 C 0.900682 3.3451895 1.854669
C3 C 0.8664667 3.3403242 2.004205273
C4 C 0.8086499 3.2870946 2.008440666
C5 C 0.7179993 3.2540035 2.1597422
C6 C 0.7766492 3.2910981 2.1681829
N1 N 0.9450304 3.4291163 2.08931948
N2 N 0.949237 3.400066 1.90727249
H1 H 0.8797655 3.4010756 2.2709974
H2 H 0.8921613 3.3154725 1.7345567
H5 H 0.6961284 3.2567397 2.2689186
H6 H 0.7948627 3.3191867 2.283128
Co Co 0.5 2.98078(60) 1.75
N1 N 0.4450304 3.0708837 1.58931948
N2 N 0.449237 2.900066 1.90727249
N2 N 0.550763 2.900066 1.59272751
Co Co 0.5 3.01922(60) 2.25
Co Co 1.0 3.51922(60) 2.25
Co Co 1.0 3.48078(60) 1.75
C7 C 0.6624417 3.1862906 2.99367703
C1 C 0.6061245 3.1078061 2.8507728
C2 C 0.599318 3.1548105 3.145331
C3 C 0.6335333 3.1596758 2.995794727
C4 C 0.6913501 3.2129054 2.991559334
C5 C 0.7820007 3.2459965 2.8402578
C6 C 0.7233508 3.2089019 2.8318171
N1 N 0.5549696 3.0708837 2.91068052
N2 N 0.550763 3.099934 3.09272751
H1 H 0.6202345 3.0989244 2.7290026
H2 H 0.6078387 3.1845275 3.2654433
H5 H 0.8038716 3.2432603 2.7310814
H6 H 0.7051373 3.1808133 2.716872
C7 C 0.8375583 3.3137094 3.00632297
C1 C 0.8938755 3.3921939 3.1492272
C2 C 0.900682 3.3451895 2.854669
C3 C 0.8664667 3.3403242 3.004205273
C4 C 0.8086499 3.2870946 3.008440666
C5 C 0.7179993 3.2540035 3.1597422
C6 C 0.7766492 3.2910981 3.1681829
N1 N 0.9450304 3.4291163 3.08931948
N2 N 0.949237 3.400066 2.90727249
H1 H 0.8797655 3.4010756 3.2709974
H2 H 0.8921613 3.3154725 2.7345567
H5 H 0.6961284 3.2567397 3.2689186
H6 H 0.7948627 3.3191867 3.283128
Co Co 0.5 2.98078(60) 2.75
N1 N 0.4450304 3.0708837 2.58931948
N2 N 0.449237 2.900066 2.90727249
N2 N 0.550763 2.900066 2.59272751
Co Co 0.5 3.01922(60) 3.25
Co Co 1.0 3.51922(60) 3.25
Co Co 1.0 3.48078(60) 2.75
C7 C 0.6624417 3.1862906 3.99367703
C1 C 0.6061245 3.1078061 3.8507728
C2 C 0.599318 3.1548105 4.145331
C3 C 0.6335333 3.1596758 3.995794727
C4 C 0.6913501 3.2129054 3.991559334
C5 C 0.7820007 3.2459965 3.8402578
C6 C 0.7233508 3.2089019 3.8318171
N1 N 0.5549696 3.0708837 3.91068052
N2 N 0.550763 3.099934 4.09272751
H1 H 0.6202345 3.0989244 3.7290026
H2 H 0.6078387 3.1845275 4.2654433
H5 H 0.8038716 3.2432603 3.7310814
H6 H 0.7051373 3.1808133 3.716872
C7 C 0.8375583 3.3137094 4.00632297
C1 C 0.8938755 3.3921939 4.1492272
C2 C 0.900682 3.3451895 3.854669
C3 C 0.8664667 3.3403242 4.004205273
C4 C 0.8086499 3.2870946 4.008440666
C5 C 0.7179993 3.2540035 4.1597422
C6 C 0.7766492 3.2910981 4.1681829
N1 N 0.9450304 3.4291163 4.08931948
N2 N 0.949237 3.400066 3.90727249
H1 H 0.8797655 3.4010756 4.2709974
H2 H 0.8921613 3.3154725 3.7345567
H5 H 0.6961284 3.2567397 4.2689186
H6 H 0.7948627 3.3191867 4.283128
Co Co 0.5 2.98078(60) 3.75
N1 N 0.4450304 3.0708837 3.58931948
N2 N 0.449237 2.900066 3.90727249
N2 N 0.550763 2.900066 3.59272751
Co Co 0.5 3.01922(60) 4.25
Co Co 1.0 3.51922(60) 4.25
Co Co 1.0 3.48078(60) 3.75
C7 C 1.6624417 0.1862906 0.99367703
C1 C 1.6061245 0.1078061 0.8507728
C2 C 1.599318 0.1548105 1.145331
C3 C 1.6335333 0.1596758 0.995794727
C4 C 1.6913501 0.2129054 0.991559334
C5 C 1.7820007 0.2459965 0.8402578
C6 C 1.7233508 0.2089019 0.8318171
N1 N 1.5549696 0.0708837 0.91068052
N2 N 1.550763 0.099934 1.09272751
H1 H 1.6202345 0.0989244 0.7290026
H2 H 1.6078387 0.1845275 1.2654433
H5 H 1.8038716 0.2432603 0.7310814
H6 H 1.7051373 0.1808133 0.716872
C7 C 1.8375583 0.3137094 1.00632297
C1 C 1.8938755 0.3921939 1.1492272
C2 C 1.900682 0.3451895 0.854669
C3 C 1.8664667 0.3403242 1.004205273
C4 C 1.8086499 0.2870946 1.008440666
C5 C 1.7179993 0.2540035 1.1597422
C6 C 1.7766492 0.2910981 1.1681829
N1 N 1.9450304 0.4291163 1.08931948
N2 N 1.949237 0.400066 0.90727249
H1 H 1.8797655 0.4010756 1.2709974
H2 H 1.8921613 0.3154725 0.7345567
H5 H 1.6961284 0.2567397 1.2689186
H6 H 1.7948627 0.3191867 1.283128
Co Co 1.5 -0.01922(60) 0.75
N1 N 1.4450304 0.0708837 0.58931948
N2 N 1.449237 -0.099934 0.90727249
N2 N 1.550763 -0.099934 0.59272751
Co Co 1.5 0.01922(60) 1.25
Co Co 2.0 0.51922(60) 1.25
Co Co 2.0 0.48078(60) 0.75
C7 C 1.6624417 0.1862906 1.99367703
C1 C 1.6061245 0.1078061 1.8507728
C2 C 1.599318 0.1548105 2.145331
C3 C 1.6335333 0.1596758 1.995794727
C4 C 1.6913501 0.2129054 1.991559334
C5 C 1.7820007 0.2459965 1.8402578
C6 C 1.7233508 0.2089019 1.8318171
N1 N 1.5549696 0.0708837 1.91068052
N2 N 1.550763 0.099934 2.09272751
H1 H 1.6202345 0.0989244 1.7290026
H2 H 1.6078387 0.1845275 2.2654433
H5 H 1.8038716 0.2432603 1.7310814
H6 H 1.7051373 0.1808133 1.716872
C7 C 1.8375583 0.3137094 2.00632297
C1 C 1.8938755 0.3921939 2.1492272
C2 C 1.900682 0.3451895 1.854669
C3 C 1.8664667 0.3403242 2.004205273
C4 C 1.8086499 0.2870946 2.008440666
C5 C 1.7179993 0.2540035 2.1597422
C6 C 1.7766492 0.2910981 2.1681829
N1 N 1.9450304 0.4291163 2.08931948
N2 N 1.949237 0.400066 1.90727249
H1 H 1.8797655 0.4010756 2.2709974
H2 H 1.8921613 0.3154725 1.7345567
H5 H 1.6961284 0.2567397 2.2689186
H6 H 1.7948627 0.3191867 2.283128
Co Co 1.5 -0.01922(60) 1.75
N1 N 1.4450304 0.0708837 1.58931948
N2 N 1.449237 -0.099934 1.90727249
N2 N 1.550763 -0.099934 1.59272751
Co Co 1.5 0.01922(60) 2.25
Co Co 2.0 0.51922(60) 2.25
Co Co 2.0 0.48078(60) 1.75
C7 C 1.6624417 0.1862906 2.99367703
C1 C 1.6061245 0.1078061 2.8507728
C2 C 1.599318 0.1548105 3.145331
C3 C 1.6335333 0.1596758 2.995794727
C4 C 1.6913501 0.2129054 2.991559334
C5 C 1.7820007 0.2459965 2.8402578
C6 C 1.7233508 0.2089019 2.8318171
N1 N 1.5549696 0.0708837 2.91068052
N2 N 1.550763 0.099934 3.09272751
H1 H 1.6202345 0.0989244 2.7290026
H2 H 1.6078387 0.1845275 3.2654433
H5 H 1.8038716 0.2432603 2.7310814
H6 H 1.7051373 0.1808133 2.716872
C7 C 1.8375583 0.3137094 3.00632297
C1 C 1.8938755 0.3921939 3.1492272
C2 C 1.900682 0.3451895 2.854669
C3 C 1.8664667 0.3403242 3.004205273
C4 C 1.8086499 0.2870946 3.008440666
C5 C 1.7179993 0.2540035 3.1597422
C6 C 1.7766492 0.2910981 3.1681829
N1 N 1.9450304 0.4291163 3.08931948
N2 N 1.949237 0.400066 2.90727249
H1 H 1.8797655 0.4010756 3.2709974
H2 H 1.8921613 0.3154725 2.7345567
H5 H 1.6961284 0.2567397 3.2689186
H6 H 1.7948627 0.3191867 3.283128
Co Co 1.5 -0.01922(60) 2.75
N1 N 1.4450304 0.0708837 2.58931948
N2 N 1.449237 -0.099934 2.90727249
N2 N 1.550763 -0.099934 2.59272751
Co Co 1.5 0.01922(60) 3.25
Co Co 2.0 0.51922(60) 3.25
Co Co 2.0 0.48078(60) 2.75
C7 C 1.6624417 0.1862906 3.99367703
C1 C 1.6061245 0.1078061 3.8507728
C2 C 1.599318 0.1548105 4.145331
C3 C 1.6335333 0.1596758 3.995794727
C4 C 1.6913501 0.2129054 3.991559334
C5 C 1.7820007 0.2459965 3.8402578
C6 C 1.7233508 0.2089019 3.8318171
N1 N 1.5549696 0.0708837 3.91068052
N2 N 1.550763 0.099934 4.09272751
H1 H 1.6202345 0.0989244 3.7290026
H2 H 1.6078387 0.1845275 4.2654433
H5 H 1.8038716 0.2432603 3.7310814
H6 H 1.7051373 0.1808133 3.716872
C7 C 1.8375583 0.3137094 4.00632297
C1 C 1.8938755 0.3921939 4.1492272
C2 C 1.900682 0.3451895 3.854669
C3 C 1.8664667 0.3403242 4.004205273
C4 C 1.8086499 0.2870946 4.008440666
C5 C 1.7179993 0.2540035 4.1597422
C6 C 1.7766492 0.2910981 4.1681829
N1 N 1.9450304 0.4291163 4.08931948
N2 N 1.949237 0.400066 3.90727249
H1 H 1.8797655 0.4010756 4.2709974
H2 H 1.8921613 0.3154725 3.7345567
H5 H 1.6961284 0.2567397 4.2689186
H6 H 1.7948627 0.3191867 4.283128
Co Co 1.5 -0.01922(60) 3.75
N1 N 1.4450304 0.0708837 3.58931948
N2 N 1.449237 -0.099934 3.90727249
N2 N 1.550763 -0.099934 3.59272751
Co Co 1.5 0.01922(60) 4.25
Co Co 2.0 0.51922(60) 4.25
Co Co 2.0 0.48078(60) 3.75
C7 C 1.6624417 1.1862906 0.99367703
C1 C 1.6061245 1.1078061 0.8507728
C2 C 1.599318 1.1548105 1.145331
C3 C 1.6335333 1.1596758 0.995794727
C4 C 1.6913501 1.2129054 0.991559334
C5 C 1.7820007 1.2459965 0.8402578
C6 C 1.7233508 1.2089019 0.8318171
N1 N 1.5549696 1.0708837 0.91068052
N2 N 1.550763 1.099934 1.09272751
H1 H 1.6202345 1.0989244 0.7290026
H2 H 1.6078387 1.1845275 1.2654433
H5 H 1.8038716 1.2432603 0.7310814
H6 H 1.7051373 1.1808133 0.716872
C7 C 1.8375583 1.3137094 1.00632297
C1 C 1.8938755 1.3921939 1.1492272
C2 C 1.900682 1.3451895 0.854669
C3 C 1.8664667 1.3403242 1.004205273
C4 C 1.8086499 1.2870946 1.008440666
C5 C 1.7179993 1.2540035 1.1597422
C6 C 1.7766492 1.2910981 1.1681829
N1 N 1.9450304 1.4291163 1.08931948
N2 N 1.949237 1.400066 0.90727249
H1 H 1.8797655 1.4010756 1.2709974
H2 H 1.8921613 1.3154725 0.7345567
H5 H 1.6961284 1.2567397 1.2689186
H6 H 1.7948627 1.3191867 1.283128
Co Co 1.5 0.98078(60) 0.75
N1 N 1.4450304 1.0708837 0.58931948
N2 N 1.449237 0.900066 0.90727249
N2 N 1.550763 0.900066 0.59272751
Co Co 1.5 1.01922(60) 1.25
Co Co 2.0 1.51922(60) 1.25
Co Co 2.0 1.48078(60) 0.75
C7 C 1.6624417 1.1862906 1.99367703
C1 C 1.6061245 1.1078061 1.8507728
C2 C 1.599318 1.1548105 2.145331
C3 C 1.6335333 1.1596758 1.995794727
C4 C 1.6913501 1.2129054 1.991559334
C5 C 1.7820007 1.2459965 1.8402578
C6 C 1.7233508 1.2089019 1.8318171
N1 N 1.5549696 1.0708837 1.91068052
N2 N 1.550763 1.099934 2.09272751
H1 H 1.6202345 1.0989244 1.7290026
H2 H 1.6078387 1.1845275 2.2654433
H5 H 1.8038716 1.2432603 1.7310814
H6 H 1.7051373 1.1808133 1.716872
C7 C 1.8375583 1.3137094 2.00632297
C1 C 1.8938755 1.3921939 2.1492272
C2 C 1.900682 1.3451895 1.854669
C3 C 1.8664667 1.3403242 2.004205273
C4 C 1.8086499 1.2870946 2.008440666
C5 C 1.7179993 1.2540035 2.1597422
C6 C 1.7766492 1.2910981 2.1681829
N1 N 1.9450304 1.4291163 2.08931948
N2 N 1.949237 1.400066 1.90727249
H1 H 1.8797655 1.4010756 2.2709974
H2 H 1.8921613 1.3154725 1.7345567
H5 H 1.6961284 1.2567397 2.2689186
H6 H 1.7948627 1.3191867 2.283128
Co Co 1.5 0.98078(60) 1.75
N1 N 1.4450304 1.0708837 1.58931948
N2 N 1.449237 0.900066 1.90727249
N2 N 1.550763 0.900066 1.59272751
Co Co 1.5 1.01922(60) 2.25
Co Co 2.0 1.51922(60) 2.25
Co Co 2.0 1.48078(60) 1.75
C7 C 1.6624417 1.1862906 2.99367703
C1 C 1.6061245 1.1078061 2.8507728
C2 C 1.599318 1.1548105 3.145331
C3 C 1.6335333 1.1596758 2.995794727
C4 C 1.6913501 1.2129054 2.991559334
C5 C 1.7820007 1.2459965 2.8402578
C6 C 1.7233508 1.2089019 2.8318171
N1 N 1.5549696 1.0708837 2.91068052
N2 N 1.550763 1.099934 3.09272751
H1 H 1.6202345 1.0989244 2.7290026
H2 H 1.6078387 1.1845275 3.2654433
H5 H 1.8038716 1.2432603 2.7310814
H6 H 1.7051373 1.1808133 2.716872
C7 C 1.8375583 1.3137094 3.00632297
C1 C 1.8938755 1.3921939 3.1492272
C2 C 1.900682 1.3451895 2.854669
C3 C 1.8664667 1.3403242 3.004205273
C4 C 1.8086499 1.2870946 3.008440666
C5 C 1.7179993 1.2540035 3.1597422
C6 C 1.7766492 1.2910981 3.1681829
N1 N 1.9450304 1.4291163 3.08931948
N2 N 1.949237 1.400066 2.90727249
H1 H 1.8797655 1.4010756 3.2709974
H2 H 1.8921613 1.3154725 2.7345567
H5 H 1.6961284 1.2567397 3.2689186
H6 H 1.7948627 1.3191867 3.283128
Co Co 1.5 0.98078(60) 2.75
N1 N 1.4450304 1.0708837 2.58931948
N2 N 1.449237 0.900066 2.90727249
N2 N 1.550763 0.900066 2.59272751
Co Co 1.5 1.01922(60) 3.25
Co Co 2.0 1.51922(60) 3.25
Co Co 2.0 1.48078(60) 2.75
C7 C 1.6624417 1.1862906 3.99367703
C1 C 1.6061245 1.1078061 3.8507728
C2 C 1.599318 1.1548105 4.145331
C3 C 1.6335333 1.1596758 3.995794727
C4 C 1.6913501 1.2129054 3.991559334
C5 C 1.7820007 1.2459965 3.8402578
C6 C 1.7233508 1.2089019 3.8318171
N1 N 1.5549696 1.0708837 3.91068052
N2 N 1.550763 1.099934 4.09272751
H1 H 1.6202345 1.0989244 3.7290026
H2 H 1.6078387 1.1845275 4.2654433
H5 H 1.8038716 1.2432603 3.7310814
H6 H 1.7051373 1.1808133 3.716872
C7 C 1.8375583 1.3137094 4.00632297
C1 C 1.8938755 1.3921939 4.1492272
C2 C 1.900682 1.3451895 3.854669
C3 C 1.8664667 1.3403242 4.004205273
C4 C 1.8086499 1.2870946 4.008440666
C5 C 1.7179993 1.2540035 4.1597422
C6 C 1.7766492 1.2910981 4.1681829
N1 N 1.9450304 1.4291163 4.08931948
N2 N 1.949237 1.400066 3.90727249
H1 H 1.8797655 1.4010756 4.2709974
H2 H 1.8921613 1.3154725 3.7345567
H5 H 1.6961284 1.2567397 4.2689186
H6 H 1.7948627 1.3191867 4.283128
Co Co 1.5 0.98078(60) 3.75
N1 N 1.4450304 1.0708837 3.58931948
N2 N 1.449237 0.900066 3.90727249
N2 N 1.550763 0.900066 3.59272751
Co Co 1.5 1.01922(60) 4.25
Co Co 2.0 1.51922(60) 4.25
Co Co 2.0 1.48078(60) 3.75
C7 C 1.6624417 2.1862906 0.99367703
C1 C 1.6061245 2.1078061 0.8507728
C2 C 1.599318 2.1548105 1.145331
C3 C 1.6335333 2.1596758 0.995794727
C4 C 1.6913501 2.2129054 0.991559334
C5 C 1.7820007 2.2459965 0.8402578
C6 C 1.7233508 2.2089019 0.8318171
N1 N 1.5549696 2.0708837 0.91068052
N2 N 1.550763 2.099934 1.09272751
H1 H 1.6202345 2.0989244 0.7290026
H2 H 1.6078387 2.1845275 1.2654433
H5 H 1.8038716 2.2432603 0.7310814
H6 H 1.7051373 2.1808133 0.716872
C7 C 1.8375583 2.3137094 1.00632297
C1 C 1.8938755 2.3921939 1.1492272
C2 C 1.900682 2.3451895 0.854669
C3 C 1.8664667 2.3403242 1.004205273
C4 C 1.8086499 2.2870946 1.008440666
C5 C 1.7179993 2.2540035 1.1597422
C6 C 1.7766492 2.2910981 1.1681829
N1 N 1.9450304 2.4291163 1.08931948
N2 N 1.949237 2.400066 0.90727249
H1 H 1.8797655 2.4010756 1.2709974
H2 H 1.8921613 2.3154725 0.7345567
H5 H 1.6961284 2.2567397 1.2689186
H6 H 1.7948627 2.3191867 1.283128
Co Co 1.5 1.98078(60) 0.75
N1 N 1.4450304 2.0708837 0.58931948
N2 N 1.449237 1.900066 0.90727249
N2 N 1.550763 1.900066 0.59272751
Co Co 1.5 2.01922(60) 1.25
Co Co 2.0 2.51922(60) 1.25
Co Co 2.0 2.48078(60) 0.75
C7 C 1.6624417 2.1862906 1.99367703
C1 C 1.6061245 2.1078061 1.8507728
C2 C 1.599318 2.1548105 2.145331
C3 C 1.6335333 2.1596758 1.995794727
C4 C 1.6913501 2.2129054 1.991559334
C5 C 1.7820007 2.2459965 1.8402578
C6 C 1.7233508 2.2089019 1.8318171
N1 N 1.5549696 2.0708837 1.91068052
N2 N 1.550763 2.099934 2.09272751
H1 H 1.6202345 2.0989244 1.7290026
H2 H 1.6078387 2.1845275 2.2654433
H5 H 1.8038716 2.2432603 1.7310814
H6 H 1.7051373 2.1808133 1.716872
C7 C 1.8375583 2.3137094 2.00632297
C1 C 1.8938755 2.3921939 2.1492272
C2 C 1.900682 2.3451895 1.854669
C3 C 1.8664667 2.3403242 2.004205273
C4 C 1.8086499 2.2870946 2.008440666
C5 C 1.7179993 2.2540035 2.1597422
C6 C 1.7766492 2.2910981 2.1681829
N1 N 1.9450304 2.4291163 2.08931948
N2 N 1.949237 2.400066 1.90727249
H1 H 1.8797655 2.4010756 2.2709974
H2 H 1.8921613 2.3154725 1.7345567
H5 H 1.6961284 2.2567397 2.2689186
H6 H 1.7948627 2.3191867 2.283128
Co Co 1.5 1.98078(60) 1.75
N1 N 1.4450304 2.0708837 1.58931948
N2 N 1.449237 1.900066 1.90727249
N2 N 1.550763 1.900066 1.59272751
Co Co 1.5 2.01922(60) 2.25
Co Co 2.0 2.51922(60) 2.25
Co Co 2.0 2.48078(60) 1.75
C7 C 1.6624417 2.1862906 2.99367703
C1 C 1.6061245 2.1078061 2.8507728
C2 C 1.599318 2.1548105 3.145331
C3 C 1.6335333 2.1596758 2.995794727
C4 C 1.6913501 2.2129054 2.991559334
C5 C 1.7820007 2.2459965 2.8402578
C6 C 1.7233508 2.2089019 2.8318171
N1 N 1.5549696 2.0708837 2.91068052
N2 N 1.550763 2.099934 3.09272751
H1 H 1.6202345 2.0989244 2.7290026
H2 H 1.6078387 2.1845275 3.2654433
H5 H 1.8038716 2.2432603 2.7310814
H6 H 1.7051373 2.1808133 2.716872
C7 C 1.8375583 2.3137094 3.00632297
C1 C 1.8938755 2.3921939 3.1492272
C2 C 1.900682 2.3451895 2.854669
C3 C 1.8664667 2.3403242 3.004205273
C4 C 1.8086499 2.2870946 3.008440666
C5 C 1.7179993 2.2540035 3.1597422
C6 C 1.7766492 2.2910981 3.1681829
N1 N 1.9450304 2.4291163 3.08931948
N2 N 1.949237 2.400066 2.90727249
H1 H 1.8797655 2.4010756 3.2709974
H2 H 1.8921613 2.3154725 2.7345567
H5 H 1.6961284 2.2567397 3.2689186
H6 H 1.7948627 2.3191867 3.283128
Co Co 1.5 1.98078(60) 2.75
N1 N 1.4450304 2.0708837 2.58931948
N2 N 1.449237 1.900066 2.90727249
N2 N 1.550763 1.900066 2.59272751
Co Co 1.5 2.01922(60) 3.25
Co Co 2.0 2.51922(60) 3.25
Co Co 2.0 2.48078(60) 2.75
C7 C 1.6624417 2.1862906 3.99367703
C1 C 1.6061245 2.1078061 3.8507728
C2 C 1.599318 2.1548105 4.145331
C3 C 1.6335333 2.1596758 3.995794727
C4 C 1.6913501 2.2129054 3.991559334
C5 C 1.7820007 2.2459965 3.8402578
C6 C 1.7233508 2.2089019 3.8318171
N1 N 1.5549696 2.0708837 3.91068052
N2 N 1.550763 2.099934 4.09272751
H1 H 1.6202345 2.0989244 3.7290026
H2 H 1.6078387 2.1845275 4.2654433
H5 H 1.8038716 2.2432603 3.7310814
H6 H 1.7051373 2.1808133 3.716872
C7 C 1.8375583 2.3137094 4.00632297
C1 C 1.8938755 2.3921939 4.1492272
C2 C 1.900682 2.3451895 3.854669
C3 C 1.8664667 2.3403242 4.004205273
C4 C 1.8086499 2.2870946 4.008440666
C5 C 1.7179993 2.2540035 4.1597422
C6 C 1.7766492 2.2910981 4.1681829
N1 N 1.9450304 2.4291163 4.08931948
N2 N 1.949237 2.400066 3.90727249
H1 H 1.8797655 2.4010756 4.2709974
H2 H 1.8921613 2.3154725 3.7345567
H5 H 1.6961284 2.2567397 4.2689186
H6 H 1.7948627 2.3191867 4.283128
Co Co 1.5 1.98078(60) 3.75
N1 N 1.4450304 2.0708837 3.58931948
N2 N 1.449237 1.900066 3.90727249
N2 N 1.550763 1.900066 3.59272751
Co Co 1.5 2.01922(60) 4.25
Co Co 2.0 2.51922(60) 4.25
Co Co 2.0 2.48078(60) 3.75
C7 C 1.6624417 3.1862906 0.99367703
C1 C 1.6061245 3.1078061 0.8507728
C2 C 1.599318 3.1548105 1.145331
C3 C 1.6335333 3.1596758 0.995794727
C4 C 1.6913501 3.2129054 0.991559334
C5 C 1.7820007 3.2459965 0.8402578
C6 C 1.7233508 3.2089019 0.8318171
N1 N 1.5549696 3.0708837 0.91068052
N2 N 1.550763 3.099934 1.09272751
H1 H 1.6202345 3.0989244 0.7290026
H2 H 1.6078387 3.1845275 1.2654433
H5 H 1.8038716 3.2432603 0.7310814
H6 H 1.7051373 3.1808133 0.716872
C7 C 1.8375583 3.3137094 1.00632297
C1 C 1.8938755 3.3921939 1.1492272
C2 C 1.900682 3.3451895 0.854669
C3 C 1.8664667 3.3403242 1.004205273
C4 C 1.8086499 3.2870946 1.008440666
C5 C 1.7179993 3.2540035 1.1597422
C6 C 1.7766492 3.2910981 1.1681829
N1 N 1.9450304 3.4291163 1.08931948
N2 N 1.949237 3.400066 0.90727249
H1 H 1.8797655 3.4010756 1.2709974
H2 H 1.8921613 3.3154725 0.7345567
H5 H 1.6961284 3.2567397 1.2689186
H6 H 1.7948627 3.3191867 1.283128
Co Co 1.5 2.98078(60) 0.75
N1 N 1.4450304 3.0708837 0.58931948
N2 N 1.449237 2.900066 0.90727249
N2 N 1.550763 2.900066 0.59272751
Co Co 1.5 3.01922(60) 1.25
Co Co 2.0 3.51922(60) 1.25
Co Co 2.0 3.48078(60) 0.75
C7 C 1.6624417 3.1862906 1.99367703
C1 C 1.6061245 3.1078061 1.8507728
C2 C 1.599318 3.1548105 2.145331
C3 C 1.6335333 3.1596758 1.995794727
C4 C 1.6913501 3.2129054 1.991559334
C5 C 1.7820007 3.2459965 1.8402578
C6 C 1.7233508 3.2089019 1.8318171
N1 N 1.5549696 3.0708837 1.91068052
N2 N 1.550763 3.099934 2.09272751
H1 H 1.6202345 3.0989244 1.7290026
H2 H 1.6078387 3.1845275 2.2654433
H5 H 1.8038716 3.2432603 1.7310814
H6 H 1.7051373 3.1808133 1.716872
C7 C 1.8375583 3.3137094 2.00632297
C1 C 1.8938755 3.3921939 2.1492272
C2 C 1.900682 3.3451895 1.854669
C3 C 1.8664667 3.3403242 2.004205273
C4 C 1.8086499 3.2870946 2.008440666
C5 C 1.7179993 3.2540035 2.1597422
C6 C 1.7766492 3.2910981 2.1681829
N1 N 1.9450304 3.4291163 2.08931948
N2 N 1.949237 3.400066 1.90727249
H1 H 1.8797655 3.4010756 2.2709974
H2 H 1.8921613 3.3154725 1.7345567
H5 H 1.6961284 3.2567397 2.2689186
H6 H 1.7948627 3.3191867 2.283128
Co Co 1.5 2.98078(60) 1.75
N1 N 1.4450304 3.0708837 1.58931948
N2 N 1.449237 2.900066 1.90727249
N2 N 1.550763 2.900066 1.59272751
Co Co 1.5 3.01922(60) 2.25
Co Co 2.0 3.51922(60) 2.25
Co Co 2.0 3.48078(60) 1.75
C7 C 1.6624417 3.1862906 2.99367703
C1 C 1.6061245 3.1078061 2.8507728
C2 C 1.599318 3.1548105 3.145331
C3 C 1.6335333 3.1596758 2.995794727
C4 C 1.6913501 3.2129054 2.991559334
C5 C 1.7820007 3.2459965 2.8402578
C6 C 1.7233508 3.2089019 2.8318171
N1 N 1.5549696 3.0708837 2.91068052
N2 N 1.550763 3.099934 3.09272751
H1 H 1.6202345 3.0989244 2.7290026
H2 H 1.6078387 3.1845275 3.2654433
H5 H 1.8038716 3.2432603 2.7310814
H6 H 1.7051373 3.1808133 2.716872
C7 C 1.8375583 3.3137094 3.00632297
C1 C 1.8938755 3.3921939 3.1492272
C2 C 1.900682 3.3451895 2.854669
C3 C 1.8664667 3.3403242 3.004205273
C4 C 1.8086499 3.2870946 3.008440666
C5 C 1.7179993 3.2540035 3.1597422
C6 C 1.7766492 3.2910981 3.1681829
N1 N 1.9450304 3.4291163 3.08931948
N2 N 1.949237 3.400066 2.90727249
H1 H 1.8797655 3.4010756 3.2709974
H2 H 1.8921613 3.3154725 2.7345567
H5 H 1.6961284 3.2567397 3.2689186
H6 H 1.7948627 3.3191867 3.283128
Co Co 1.5 2.98078(60) 2.75
N1 N 1.4450304 3.0708837 2.58931948
N2 N 1.449237 2.900066 2.90727249
N2 N 1.550763 2.900066 2.59272751
Co Co 1.5 3.01922(60) 3.25
Co Co 2.0 3.51922(60) 3.25
Co Co 2.0 3.48078(60) 2.75
C7 C 1.6624417 3.1862906 3.99367703
C1 C 1.6061245 3.1078061 3.8507728
C2 C 1.599318 3.1548105 4.145331
C3 C 1.6335333 3.1596758 3.995794727
C4 C 1.6913501 3.2129054 3.991559334
C5 C 1.7820007 3.2459965 3.8402578
C6 C 1.7233508 3.2089019 3.8318171
N1 N 1.5549696 3.0708837 3.91068052
N2 N 1.550763 3.099934 4.09272751
H1 H 1.6202345 3.0989244 3.7290026
H2 H 1.6078387 3.1845275 4.2654433
H5 H 1.8038716 3.2432603 3.7310814
H6 H 1.7051373 3.1808133 3.716872
C7 C 1.8375583 3.3137094 4.00632297
C1 C 1.8938755 3.3921939 4.1492272
C2 C 1.900682 3.3451895 3.854669
C3 C 1.8664667 3.3403242 4.004205273
C4 C 1.8086499 3.2870946 4.008440666
C5 C 1.7179993 3.2540035 4.1597422
C6 C 1.7766492 3.2910981 4.1681829
N1 N 1.9450304 3.4291163 4.08931948
N2 N 1.949237 3.400066 3.90727249
H1 H 1.8797655 3.4010756 4.2709974
H2 H 1.8921613 3.3154725 3.7345567
H5 H 1.6961284 3.2567397 4.2689186
H6 H 1.7948627 3.3191867 4.283128
Co Co 1.5 2.98078(60) 3.75
N1 N 1.4450304 3.0708837 3.58931948
N2 N 1.449237 2.900066 3.90727249
N2 N 1.550763 2.900066 3.59272751
Co Co 1.5 3.01922(60) 4.25
Co Co 2.0 3.51922(60) 4.25
Co Co 2.0 3.48078(60) 3.75
C7 C 2.6624417 0.1862906 0.99367703
C1 C 2.6061245 0.1078061 0.8507728
C2 C 2.599318 0.1548105 1.145331
C3 C 2.6335333 0.1596758 0.995794727
C4 C 2.6913501 0.2129054 0.991559334
C5 C 2.7820007 0.2459965 0.8402578
C6 C 2.7233508 0.2089019 0.8318171
N1 N 2.5549696 0.0708837 0.91068052
N2 N 2.550763 0.099934 1.09272751
H1 H 2.6202345 0.0989244 0.7290026
H2 H 2.6078387 0.1845275 1.2654433
H5 H 2.8038716 0.2432603 0.7310814
H6 H 2.7051373 0.1808133 0.716872
C7 C 2.8375583 0.3137094 1.00632297
C1 C 2.8938755 0.3921939 1.1492272
C2 C 2.900682 0.3451895 0.854669
C3 C 2.8664667 0.3403242 1.004205273
C4 C 2.8086499 0.2870946 1.008440666
C5 C 2.7179993 0.2540035 1.1597422
C6 C 2.7766492 0.2910981 1.1681829
N1 N 2.9450304 0.4291163 1.08931948
N2 N 2.949237 0.400066 0.90727249
H1 H 2.8797655 0.4010756 1.2709974
H2 H 2.8921613 0.3154725 0.7345567
H5 H 2.6961284 0.2567397 1.2689186
H6 H 2.7948627 0.3191867 1.283128
Co Co 2.5 -0.01922(60) 0.75
N1 N 2.4450304 0.0708837 0.58931948
N2 N 2.449237 -0.099934 0.90727249
N2 N 2.550763 -0.099934 0.59272751
Co Co 2.5 0.01922(60) 1.25
Co Co 3.0 0.51922(60) 1.25
Co Co 3.0 0.48078(60) 0.75
C7 C 2.6624417 0.1862906 1.99367703
C1 C 2.6061245 0.1078061 1.8507728
C2 C 2.599318 0.1548105 2.145331
C3 C 2.6335333 0.1596758 1.995794727
C4 C 2.6913501 0.2129054 1.991559334
C5 C 2.7820007 0.2459965 1.8402578
C6 C 2.7233508 0.2089019 1.8318171
N1 N 2.5549696 0.0708837 1.91068052
N2 N 2.550763 0.099934 2.09272751
H1 H 2.6202345 0.0989244 1.7290026
H2 H 2.6078387 0.1845275 2.2654433
H5 H 2.8038716 0.2432603 1.7310814
H6 H 2.7051373 0.1808133 1.716872
C7 C 2.8375583 0.3137094 2.00632297
C1 C 2.8938755 0.3921939 2.1492272
C2 C 2.900682 0.3451895 1.854669
C3 C 2.8664667 0.3403242 2.004205273
C4 C 2.8086499 0.2870946 2.008440666
C5 C 2.7179993 0.2540035 2.1597422
C6 C 2.7766492 0.2910981 2.1681829
N1 N 2.9450304 0.4291163 2.08931948
N2 N 2.949237 0.400066 1.90727249
H1 H 2.8797655 0.4010756 2.2709974
H2 H 2.8921613 0.3154725 1.7345567
H5 H 2.6961284 0.2567397 2.2689186
H6 H 2.7948627 0.3191867 2.283128
Co Co 2.5 -0.01922(60) 1.75
N1 N 2.4450304 0.0708837 1.58931948
N2 N 2.449237 -0.099934 1.90727249
N2 N 2.550763 -0.099934 1.59272751
Co Co 2.5 0.01922(60) 2.25
Co Co 3.0 0.51922(60) 2.25
Co Co 3.0 0.48078(60) 1.75
C7 C 2.6624417 0.1862906 2.99367703
C1 C 2.6061245 0.1078061 2.8507728
C2 C 2.599318 0.1548105 3.145331
C3 C 2.6335333 0.1596758 2.995794727
C4 C 2.6913501 0.2129054 2.991559334
C5 C 2.7820007 0.2459965 2.8402578
C6 C 2.7233508 0.2089019 2.8318171
N1 N 2.5549696 0.0708837 2.91068052
N2 N 2.550763 0.099934 3.09272751
H1 H 2.6202345 0.0989244 2.7290026
H2 H 2.6078387 0.1845275 3.2654433
H5 H 2.8038716 0.2432603 2.7310814
H6 H 2.7051373 0.1808133 2.716872
C7 C 2.8375583 0.3137094 3.00632297
C1 C 2.8938755 0.3921939 3.1492272
C2 C 2.900682 0.3451895 2.854669
C3 C 2.8664667 0.3403242 3.004205273
C4 C 2.8086499 0.2870946 3.008440666
C5 C 2.7179993 0.2540035 3.1597422
C6 C 2.7766492 0.2910981 3.1681829
N1 N 2.9450304 0.4291163 3.08931948
N2 N 2.949237 0.400066 2.90727249
H1 H 2.8797655 0.4010756 3.2709974
H2 H 2.8921613 0.3154725 2.7345567
H5 H 2.6961284 0.2567397 3.2689186
H6 H 2.7948627 0.3191867 3.283128
Co Co 2.5 -0.01922(60) 2.75
N1 N 2.4450304 0.0708837 2.58931948
N2 N 2.449237 -0.099934 2.90727249
N2 N 2.550763 -0.099934 2.59272751
Co Co 2.5 0.01922(60) 3.25
Co Co 3.0 0.51922(60) 3.25
Co Co 3.0 0.48078(60) 2.75
C7 C 2.6624417 0.1862906 3.99367703
C1 C 2.6061245 0.1078061 3.8507728
C2 C 2.599318 0.1548105 4.145331
C3 C 2.6335333 0.1596758 3.995794727
C4 C 2.6913501 0.2129054 3.991559334
C5 C 2.7820007 0.2459965 3.8402578
C6 C 2.7233508 0.2089019 3.8318171
N1 N 2.5549696 0.0708837 3.91068052
N2 N 2.550763 0.099934 4.09272751
H1 H 2.6202345 0.0989244 3.7290026
H2 H 2.6078387 0.1845275 4.2654433
H5 H 2.8038716 0.2432603 3.7310814
H6 H 2.7051373 0.1808133 3.716872
C7 C 2.8375583 0.3137094 4.00632297
C1 C 2.8938755 0.3921939 4.1492272
C2 C 2.900682 0.3451895 3.854669
C3 C 2.8664667 0.3403242 4.004205273
C4 C 2.8086499 0.2870946 4.008440666
C5 C 2.7179993 0.2540035 4.1597422
C6 C 2.7766492 0.2910981 4.1681829
N1 N 2.9450304 0.4291163 4.08931948
N2 N 2.949237 0.400066 3.90727249
H1 H 2.8797655 0.4010756 4.2709974
H2 H 2.8921613 0.3154725 3.7345567
H5 H 2.6961284 0.2567397 4.2689186
H6 H 2.7948627 0.3191867 4.283128
Co Co 2.5 -0.01922(60) 3.75
N1 N 2.4450304 0.0708837 3.58931948
N2 N 2.449237 -0.099934 3.90727249
N2 N 2.550763 -0.099934 3.59272751
Co Co 2.5 0.01922(60) 4.25
Co Co 3.0 0.51922(60) 4.25
Co Co 3.0 0.48078(60) 3.75
C7 C 2.6624417 1.1862906 0.99367703
C1 C 2.6061245 1.1078061 0.8507728
C2 C 2.599318 1.1548105 1.145331
C3 C 2.6335333 1.1596758 0.995794727
C4 C 2.6913501 1.2129054 0.991559334
C5 C 2.7820007 1.2459965 0.8402578
C6 C 2.7233508 1.2089019 0.8318171
N1 N 2.5549696 1.0708837 0.91068052
N2 N 2.550763 1.099934 1.09272751
H1 H 2.6202345 1.0989244 0.7290026
H2 H 2.6078387 1.1845275 1.2654433
H5 H 2.8038716 1.2432603 0.7310814
H6 H 2.7051373 1.1808133 0.716872
C7 C 2.8375583 1.3137094 1.00632297
C1 C 2.8938755 1.3921939 1.1492272
C2 C 2.900682 1.3451895 0.854669
C3 C 2.8664667 1.3403242 1.004205273
C4 C 2.8086499 1.2870946 1.008440666
C5 C 2.7179993 1.2540035 1.1597422
C6 C 2.7766492 1.2910981 1.1681829
N1 N 2.9450304 1.4291163 1.08931948
N2 N 2.949237 1.400066 0.90727249
H1 H 2.8797655 1.4010756 1.2709974
H2 H 2.8921613 1.3154725 0.7345567
H5 H 2.6961284 1.2567397 1.2689186
H6 H 2.7948627 1.3191867 1.283128
Co Co 2.5 0.98078(60) 0.75
N1 N 2.4450304 1.0708837 0.58931948
N2 N 2.449237 0.900066 0.90727249
N2 N 2.550763 0.900066 0.59272751
Co Co 2.5 1.01922(60) 1.25
Co Co 3.0 1.51922(60) 1.25
Co Co 3.0 1.48078(60) 0.75
C7 C 2.6624417 1.1862906 1.99367703
C1 C 2.6061245 1.1078061 1.8507728
C2 C 2.599318 1.1548105 2.145331
C3 C 2.6335333 1.1596758 1.995794727
C4 C 2.6913501 1.2129054 1.991559334
C5 C 2.7820007 1.2459965 1.8402578
C6 C 2.7233508 1.2089019 1.8318171
N1 N 2.5549696 1.0708837 1.91068052
N2 N 2.550763 1.099934 2.09272751
H1 H 2.6202345 1.0989244 1.7290026
H2 H 2.6078387 1.1845275 2.2654433
H5 H 2.8038716 1.2432603 1.7310814
H6 H 2.7051373 1.1808133 1.716872
C7 C 2.8375583 1.3137094 2.00632297
C1 C 2.8938755 1.3921939 2.1492272
C2 C 2.900682 1.3451895 1.854669
C3 C 2.8664667 1.3403242 2.004205273
C4 C 2.8086499 1.2870946 2.008440666
C5 C 2.7179993 1.2540035 2.1597422
C6 C 2.7766492 1.2910981 2.1681829
N1 N 2.9450304 1.4291163 2.08931948
N2 N 2.949237 1.400066 1.90727249
H1 H 2.8797655 1.4010756 2.2709974
H2 H 2.8921613 1.3154725 1.7345567
H5 H 2.6961284 1.2567397 2.2689186
H6 H 2.7948627 1.3191867 2.283128
Co Co 2.5 0.98078(60) 1.75
N1 N 2.4450304 1.0708837 1.58931948
N2 N 2.449237 0.900066 1.90727249
N2 N 2.550763 0.900066 1.59272751
Co Co 2.5 1.01922(60) 2.25
Co Co 3.0 1.51922(60) 2.25
Co Co 3.0 1.48078(60) 1.75
C7 C 2.6624417 1.1862906 2.99367703
C1 C 2.6061245 1.1078061 2.8507728
C2 C 2.599318 1.1548105 3.145331
C3 C 2.6335333 1.1596758 2.995794727
C4 C 2.6913501 1.2129054 2.991559334
C5 C 2.7820007 1.2459965 2.8402578
C6 C 2.7233508 1.2089019 2.8318171
N1 N 2.5549696 1.0708837 2.91068052
N2 N 2.550763 1.099934 3.09272751
H1 H 2.6202345 1.0989244 2.7290026
H2 H 2.6078387 1.1845275 3.2654433
H5 H 2.8038716 1.2432603 2.7310814
H6 H 2.7051373 1.1808133 2.716872
C7 C 2.8375583 1.3137094 3.00632297
C1 C 2.8938755 1.3921939 3.1492272
C2 C 2.900682 1.3451895 2.854669
C3 C 2.8664667 1.3403242 3.004205273
C4 C 2.8086499 1.2870946 3.008440666
C5 C 2.7179993 1.2540035 3.1597422
C6 C 2.7766492 1.2910981 3.1681829
N1 N 2.9450304 1.4291163 3.08931948
N2 N 2.949237 1.400066 2.90727249
H1 H 2.8797655 1.4010756 3.2709974
H2 H 2.8921613 1.3154725 2.7345567
H5 H 2.6961284 1.2567397 3.2689186
H6 H 2.7948627 1.3191867 3.283128
Co Co 2.5 0.98078(60) 2.75
N1 N 2.4450304 1.0708837 2.58931948
N2 N 2.449237 0.900066 2.90727249
N2 N 2.550763 0.900066 2.59272751
Co Co 2.5 1.01922(60) 3.25
Co Co 3.0 1.51922(60) 3.25
Co Co 3.0 1.48078(60) 2.75
C7 C 2.6624417 1.1862906 3.99367703
C1 C 2.6061245 1.1078061 3.8507728
C2 C 2.599318 1.1548105 4.145331
C3 C 2.6335333 1.1596758 3.995794727
C4 C 2.6913501 1.2129054 3.991559334
C5 C 2.7820007 1.2459965 3.8402578
C6 C 2.7233508 1.2089019 3.8318171
N1 N 2.5549696 1.0708837 3.91068052
N2 N 2.550763 1.099934 4.09272751
H1 H 2.6202345 1.0989244 3.7290026
H2 H 2.6078387 1.1845275 4.2654433
H5 H 2.8038716 1.2432603 3.7310814
H6 H 2.7051373 1.1808133 3.716872
C7 C 2.8375583 1.3137094 4.00632297
C1 C 2.8938755 1.3921939 4.1492272
C2 C 2.900682 1.3451895 3.854669
C3 C 2.8664667 1.3403242 4.004205273
C4 C 2.8086499 1.2870946 4.008440666
C5 C 2.7179993 1.2540035 4.1597422
C6 C 2.7766492 1.2910981 4.1681829
N1 N 2.9450304 1.4291163 4.08931948
N2 N 2.949237 1.400066 3.90727249
H1 H 2.8797655 1.4010756 4.2709974
H2 H 2.8921613 1.3154725 3.7345567
H5 H 2.6961284 1.2567397 4.2689186
H6 H 2.7948627 1.3191867 4.283128
Co Co 2.5 0.98078(60) 3.75
N1 N 2.4450304 1.0708837 3.58931948
N2 N 2.449237 0.900066 3.90727249
N2 N 2.550763 0.900066 3.59272751
Co Co 2.5 1.01922(60) 4.25
Co Co 3.0 1.51922(60) 4.25
Co Co 3.0 1.48078(60) 3.75
C7 C 2.6624417 2.1862906 0.99367703
C1 C 2.6061245 2.1078061 0.8507728
C2 C 2.599318 2.1548105 1.145331
C3 C 2.6335333 2.1596758 0.995794727
C4 C 2.6913501 2.2129054 0.991559334
C5 C 2.7820007 2.2459965 0.8402578
C6 C 2.7233508 2.2089019 0.8318171
N1 N 2.5549696 2.0708837 0.91068052
N2 N 2.550763 2.099934 1.09272751
H1 H 2.6202345 2.0989244 0.7290026
H2 H 2.6078387 2.1845275 1.2654433
H5 H 2.8038716 2.2432603 0.7310814
H6 H 2.7051373 2.1808133 0.716872
C7 C 2.8375583 2.3137094 1.00632297
C1 C 2.8938755 2.3921939 1.1492272
C2 C 2.900682 2.3451895 0.854669
C3 C 2.8664667 2.3403242 1.004205273
C4 C 2.8086499 2.2870946 1.008440666
C5 C 2.7179993 2.2540035 1.1597422
C6 C 2.7766492 2.2910981 1.1681829
N1 N 2.9450304 2.4291163 1.08931948
N2 N 2.949237 2.400066 0.90727249
H1 H 2.8797655 2.4010756 1.2709974
H2 H 2.8921613 2.3154725 0.7345567
H5 H 2.6961284 2.2567397 1.2689186
H6 H 2.7948627 2.3191867 1.283128
Co Co 2.5 1.98078(60) 0.75
N1 N 2.4450304 2.0708837 0.58931948
N2 N 2.449237 1.900066 0.90727249
N2 N 2.550763 1.900066 0.59272751
Co Co 2.5 2.01922(60) 1.25
Co Co 3.0 2.51922(60) 1.25
Co Co 3.0 2.48078(60) 0.75
C7 C 2.6624417 2.1862906 1.99367703
C1 C 2.6061245 2.1078061 1.8507728
C2 C 2.599318 2.1548105 2.145331
C3 C 2.6335333 2.1596758 1.995794727
C4 C 2.6913501 2.2129054 1.991559334
C5 C 2.7820007 2.2459965 1.8402578
C6 C 2.7233508 2.2089019 1.8318171
N1 N 2.5549696 2.0708837 1.91068052
N2 N 2.550763 2.099934 2.09272751
H1 H 2.6202345 2.0989244 1.7290026
H2 H 2.6078387 2.1845275 2.2654433
H5 H 2.8038716 2.2432603 1.7310814
H6 H 2.7051373 2.1808133 1.716872
C7 C 2.8375583 2.3137094 2.00632297
C1 C 2.8938755 2.3921939 2.1492272
C2 C 2.900682 2.3451895 1.854669
C3 C 2.8664667 2.3403242 2.004205273
C4 C 2.8086499 2.2870946 2.008440666
C5 C 2.7179993 2.2540035 2.1597422
C6 C 2.7766492 2.2910981 2.1681829
N1 N 2.9450304 2.4291163 2.08931948
N2 N 2.949237 2.400066 1.90727249
H1 H 2.8797655 2.4010756 2.2709974
H2 H 2.8921613 2.3154725 1.7345567
H5 H 2.6961284 2.2567397 2.2689186
H6 H 2.7948627 2.3191867 2.283128
Co Co 2.5 1.98078(60) 1.75
N1 N 2.4450304 2.0708837 1.58931948
N2 N 2.449237 1.900066 1.90727249
N2 N 2.550763 1.900066 1.59272751
Co Co 2.5 2.01922(60) 2.25
Co Co 3.0 2.51922(60) 2.25
Co Co 3.0 2.48078(60) 1.75
C7 C 2.6624417 2.1862906 2.99367703
C1 C 2.6061245 2.1078061 2.8507728
C2 C 2.599318 2.1548105 3.145331
C3 C 2.6335333 2.1596758 2.995794727
C4 C 2.6913501 2.2129054 2.991559334
C5 C 2.7820007 2.2459965 2.8402578
C6 C 2.7233508 2.2089019 2.8318171
N1 N 2.5549696 2.0708837 2.91068052
N2 N 2.550763 2.099934 3.09272751
H1 H 2.6202345 2.0989244 2.7290026
H2 H 2.6078387 2.1845275 3.2654433
H5 H 2.8038716 2.2432603 2.7310814
H6 H 2.7051373 2.1808133 2.716872
C7 C 2.8375583 2.3137094 3.00632297
C1 C 2.8938755 2.3921939 3.1492272
C2 C 2.900682 2.3451895 2.854669
C3 C 2.8664667 2.3403242 3.004205273
C4 C 2.8086499 2.2870946 3.008440666
C5 C 2.7179993 2.2540035 3.1597422
C6 C 2.7766492 2.2910981 3.1681829
N1 N 2.9450304 2.4291163 3.08931948
N2 N 2.949237 2.400066 2.90727249
H1 H 2.8797655 2.4010756 3.2709974
H2 H 2.8921613 2.3154725 2.7345567
H5 H 2.6961284 2.2567397 3.2689186
H6 H 2.7948627 2.3191867 3.283128
Co Co 2.5 1.98078(60) 2.75
N1 N 2.4450304 2.0708837 2.58931948
N2 N 2.449237 1.900066 2.90727249
N2 N 2.550763 1.900066 2.59272751
Co Co 2.5 2.01922(60) 3.25
Co Co 3.0 2.51922(60) 3.25
Co Co 3.0 2.48078(60) 2.75
C7 C 2.6624417 2.1862906 3.99367703
C1 C 2.6061245 2.1078061 3.8507728
C2 C 2.599318 2.1548105 4.145331
C3 C 2.6335333 2.1596758 3.995794727
C4 C 2.6913501 2.2129054 3.991559334
C5 C 2.7820007 2.2459965 3.8402578
C6 C 2.7233508 2.2089019 3.8318171
N1 N 2.5549696 2.0708837 3.91068052
N2 N 2.550763 2.099934 4.09272751
H1 H 2.6202345 2.0989244 3.7290026
H2 H 2.6078387 2.1845275 4.2654433
H5 H 2.8038716 2.2432603 3.7310814
H6 H 2.7051373 2.1808133 3.716872
C7 C 2.8375583 2.3137094 4.00632297
C1 C 2.8938755 2.3921939 4.1492272
C2 C 2.900682 2.3451895 3.854669
C3 C 2.8664667 2.3403242 4.004205273
C4 C 2.8086499 2.2870946 4.008440666
C5 C 2.7179993 2.2540035 4.1597422
C6 C 2.7766492 2.2910981 4.1681829
N1 N 2.9450304 2.4291163 4.08931948
N2 N 2.949237 2.400066 3.90727249
H1 H 2.8797655 2.4010756 4.2709974
H2 H 2.8921613 2.3154725 3.7345567
H5 H 2.6961284 2.2567397 4.2689186
H6 H 2.7948627 2.3191867 4.283128
Co Co 2.5 1.98078(60) 3.75
N1 N 2.4450304 2.0708837 3.58931948
N2 N 2.449237 1.900066 3.90727249
N2 N 2.550763 1.900066 3.59272751
Co Co 2.5 2.01922(60) 4.25
Co Co 3.0 2.51922(60) 4.25
Co Co 3.0 2.48078(60) 3.75
C7 C 2.6624417 3.1862906 0.99367703
C1 C 2.6061245 3.1078061 0.8507728
C2 C 2.599318 3.1548105 1.145331
C3 C 2.6335333 3.1596758 0.995794727
C4 C 2.6913501 3.2129054 0.991559334
C5 C 2.7820007 3.2459965 0.8402578
C6 C 2.7233508 3.2089019 0.8318171
N1 N 2.5549696 3.0708837 0.91068052
N2 N 2.550763 3.099934 1.09272751
H1 H 2.6202345 3.0989244 0.7290026
H2 H 2.6078387 3.1845275 1.2654433
H5 H 2.8038716 3.2432603 0.7310814
H6 H 2.7051373 3.1808133 0.716872
C7 C 2.8375583 3.3137094 1.00632297
C1 C 2.8938755 3.3921939 1.1492272
C2 C 2.900682 3.3451895 0.854669
C3 C 2.8664667 3.3403242 1.004205273
C4 C 2.8086499 3.2870946 1.008440666
C5 C 2.7179993 3.2540035 1.1597422
C6 C 2.7766492 3.2910981 1.1681829
N1 N 2.9450304 3.4291163 1.08931948
N2 N 2.949237 3.400066 0.90727249
H1 H 2.8797655 3.4010756 1.2709974
H2 H 2.8921613 3.3154725 0.7345567
H5 H 2.6961284 3.2567397 1.2689186
H6 H 2.7948627 3.3191867 1.283128
Co Co 2.5 2.98078(60) 0.75
N1 N 2.4450304 3.0708837 0.58931948
N2 N 2.449237 2.900066 0.90727249
N2 N 2.550763 2.900066 0.59272751
Co Co 2.5 3.01922(60) 1.25
Co Co 3.0 3.51922(60) 1.25
Co Co 3.0 3.48078(60) 0.75
C7 C 2.6624417 3.1862906 1.99367703
C1 C 2.6061245 3.1078061 1.8507728
C2 C 2.599318 3.1548105 2.145331
C3 C 2.6335333 3.1596758 1.995794727
C4 C 2.6913501 3.2129054 1.991559334
C5 C 2.7820007 3.2459965 1.8402578
C6 C 2.7233508 3.2089019 1.8318171
N1 N 2.5549696 3.0708837 1.91068052
N2 N 2.550763 3.099934 2.09272751
H1 H 2.6202345 3.0989244 1.7290026
H2 H 2.6078387 3.1845275 2.2654433
H5 H 2.8038716 3.2432603 1.7310814
H6 H 2.7051373 3.1808133 1.716872
C7 C 2.8375583 3.3137094 2.00632297
C1 C 2.8938755 3.3921939 2.1492272
C2 C 2.900682 3.3451895 1.854669
C3 C 2.8664667 3.3403242 2.004205273
C4 C 2.8086499 3.2870946 2.008440666
C5 C 2.7179993 3.2540035 2.1597422
C6 C 2.7766492 3.2910981 2.1681829
N1 N 2.9450304 3.4291163 2.08931948
N2 N 2.949237 3.400066 1.90727249
H1 H 2.8797655 3.4010756 2.2709974
H2 H 2.8921613 3.3154725 1.7345567
H5 H 2.6961284 3.2567397 2.2689186
H6 H 2.7948627 3.3191867 2.283128
Co Co 2.5 2.98078(60) 1.75
N1 N 2.4450304 3.0708837 1.58931948
N2 N 2.449237 2.900066 1.90727249
N2 N 2.550763 2.900066 1.59272751
Co Co 2.5 3.01922(60) 2.25
Co Co 3.0 3.51922(60) 2.25
Co Co 3.0 3.48078(60) 1.75
C7 C 2.6624417 3.1862906 2.99367703
C1 C 2.6061245 3.1078061 2.8507728
C2 C 2.599318 3.1548105 3.145331
C3 C 2.6335333 3.1596758 2.995794727
C4 C 2.6913501 3.2129054 2.991559334
C5 C 2.7820007 3.2459965 2.8402578
C6 C 2.7233508 3.2089019 2.8318171
N1 N 2.5549696 3.0708837 2.91068052
N2 N 2.550763 3.099934 3.09272751
H1 H 2.6202345 3.0989244 2.7290026
H2 H 2.6078387 3.1845275 3.2654433
H5 H 2.8038716 3.2432603 2.7310814
H6 H 2.7051373 3.1808133 2.716872
C7 C 2.8375583 3.3137094 3.00632297
C1 C 2.8938755 3.3921939 3.1492272
C2 C 2.900682 3.3451895 2.854669
C3 C 2.8664667 3.3403242 3.004205273
C4 C 2.8086499 3.2870946 3.008440666
C5 C 2.7179993 3.2540035 3.1597422
C6 C 2.7766492 3.2910981 3.1681829
N1 N 2.9450304 3.4291163 3.08931948
N2 N 2.949237 3.400066 2.90727249
H1 H 2.8797655 3.4010756 3.2709974
H2 H 2.8921613 3.3154725 2.7345567
H5 H 2.6961284 3.2567397 3.2689186
H6 H 2.7948627 3.3191867 3.283128
Co Co 2.5 2.98078(60) 2.75
N1 N 2.4450304 3.0708837 2.58931948
N2 N 2.449237 2.900066 2.90727249
N2 N 2.550763 2.900066 2.59272751
Co Co 2.5 3.01922(60) 3.25
Co Co 3.0 3.51922(60) 3.25
Co Co 3.0 3.48078(60) 2.75
C7 C 2.6624417 3.1862906 3.99367703
C1 C 2.6061245 3.1078061 3.8507728
C2 C 2.599318 3.1548105 4.145331
C3 C 2.6335333 3.1596758 3.995794727
C4 C 2.6913501 3.2129054 3.991559334
C5 C 2.7820007 3.2459965 3.8402578
C6 C 2.7233508 3.2089019 3.8318171
N1 N 2.5549696 3.0708837 3.91068052
N2 N 2.550763 3.099934 4.09272751
H1 H 2.6202345 3.0989244 3.7290026
H2 H 2.6078387 3.1845275 4.2654433
H5 H 2.8038716 3.2432603 3.7310814
H6 H 2.7051373 3.1808133 3.716872
C7 C 2.8375583 3.3137094 4.00632297
C1 C 2.8938755 3.3921939 4.1492272
C2 C 2.900682 3.3451895 3.854669
C3 C 2.8664667 3.3403242 4.004205273
C4 C 2.8086499 3.2870946 4.008440666
C5 C 2.7179993 3.2540035 4.1597422
C6 C 2.7766492 3.2910981 4.1681829
N1 N 2.9450304 3.4291163 4.08931948
N2 N 2.949237 3.400066 3.90727249
H1 H 2.8797655 3.4010756 4.2709974
H2 H 2.8921613 3.3154725 3.7345567
H5 H 2.6961284 3.2567397 4.2689186
H6 H 2.7948627 3.3191867 4.283128
Co Co 2.5 2.98078(60) 3.75
N1 N 2.4450304 3.0708837 3.58931948
N2 N 2.449237 2.900066 3.90727249
N2 N 2.550763 2.900066 3.59272751
Co Co 2.5 3.01922(60) 4.25
Co Co 3.0 3.51922(60) 4.25
Co Co 3.0 3.48078(60) 3.75
C7 C 3.6624417 0.1862906 0.99367703
C1 C 3.6061245 0.1078061 0.8507728
C2 C 3.599318 0.1548105 1.145331
C3 C 3.6335333 0.1596758 0.995794727
C4 C 3.6913501 0.2129054 0.991559334
C5 C 3.7820007 0.2459965 0.8402578
C6 C 3.7233508 0.2089019 0.8318171
N1 N 3.5549696 0.0708837 0.91068052
N2 N 3.550763 0.099934 1.09272751
H1 H 3.6202345 0.0989244 0.7290026
H2 H 3.6078387 0.1845275 1.2654433
H5 H 3.8038716 0.2432603 0.7310814
H6 H 3.7051373 0.1808133 0.716872
C7 C 3.8375583 0.3137094 1.00632297
C1 C 3.8938755 0.3921939 1.1492272
C2 C 3.900682 0.3451895 0.854669
C3 C 3.8664667 0.3403242 1.004205273
C4 C 3.8086499 0.2870946 1.008440666
C5 C 3.7179993 0.2540035 1.1597422
C6 C 3.7766492 0.2910981 1.1681829
N1 N 3.9450304 0.4291163 1.08931948
N2 N 3.949237 0.400066 0.90727249
H1 H 3.8797655 0.4010756 1.2709974
H2 H 3.8921613 0.3154725 0.7345567
H5 H 3.6961284 0.2567397 1.2689186
H6 H 3.7948627 0.3191867 1.283128
Co Co 3.5 -0.01922(60) 0.75
N1 N 3.4450304 0.0708837 0.58931948
N2 N 3.449237 -0.099934 0.90727249
N2 N 3.550763 -0.099934 0.59272751
Co Co 3.5 0.01922(60) 1.25
Co Co 4.0 0.51922(60) 1.25
Co Co 4.0 0.48078(60) 0.75
C7 C 3.6624417 0.1862906 1.99367703
C1 C 3.6061245 0.1078061 1.8507728
C2 C 3.599318 0.1548105 2.145331
C3 C 3.6335333 0.1596758 1.995794727
C4 C 3.6913501 0.2129054 1.991559334
C5 C 3.7820007 0.2459965 1.8402578
C6 C 3.7233508 0.2089019 1.8318171
N1 N 3.5549696 0.0708837 1.91068052
N2 N 3.550763 0.099934 2.09272751
H1 H 3.6202345 0.0989244 1.7290026
H2 H 3.6078387 0.1845275 2.2654433
H5 H 3.8038716 0.2432603 1.7310814
H6 H 3.7051373 0.1808133 1.716872
C7 C 3.8375583 0.3137094 2.00632297
C1 C 3.8938755 0.3921939 2.1492272
C2 C 3.900682 0.3451895 1.854669
C3 C 3.8664667 0.3403242 2.004205273
C4 C 3.8086499 0.2870946 2.008440666
C5 C 3.7179993 0.2540035 2.1597422
C6 C 3.7766492 0.2910981 2.1681829
N1 N 3.9450304 0.4291163 2.08931948
N2 N 3.949237 0.400066 1.90727249
H1 H 3.8797655 0.4010756 2.2709974
H2 H 3.8921613 0.3154725 1.7345567
H5 H 3.6961284 0.2567397 2.2689186
H6 H 3.7948627 0.3191867 2.283128
Co Co 3.5 -0.01922(60) 1.75
N1 N 3.4450304 0.0708837 1.58931948
N2 N 3.449237 -0.099934 1.90727249
N2 N 3.550763 -0.099934 1.59272751
Co Co 3.5 0.01922(60) 2.25
Co Co 4.0 0.51922(60) 2.25
Co Co 4.0 0.48078(60) 1.75
C7 C 3.6624417 0.1862906 2.99367703
C1 C 3.6061245 0.1078061 2.8507728
C2 C 3.599318 0.1548105 3.145331
C3 C 3.6335333 0.1596758 2.995794727
C4 C 3.6913501 0.2129054 2.991559334
C5 C 3.7820007 0.2459965 2.8402578
C6 C 3.7233508 0.2089019 2.8318171
N1 N 3.5549696 0.0708837 2.91068052
N2 N 3.550763 0.099934 3.09272751
H1 H 3.6202345 0.0989244 2.7290026
H2 H 3.6078387 0.1845275 3.2654433
H5 H 3.8038716 0.2432603 2.7310814
H6 H 3.7051373 0.1808133 2.716872
C7 C 3.8375583 0.3137094 3.00632297
C1 C 3.8938755 0.3921939 3.1492272
C2 C 3.900682 0.3451895 2.854669
C3 C 3.8664667 0.3403242 3.004205273
C4 C 3.8086499 0.2870946 3.008440666
C5 C 3.7179993 0.2540035 3.1597422
C6 C 3.7766492 0.2910981 3.1681829
N1 N 3.9450304 0.4291163 3.08931948
N2 N 3.949237 0.400066 2.90727249
H1 H 3.8797655 0.4010756 3.2709974
H2 H 3.8921613 0.3154725 2.7345567
H5 H 3.6961284 0.2567397 3.2689186
H6 H 3.7948627 0.3191867 3.283128
Co Co 3.5 -0.01922(60) 2.75
N1 N 3.4450304 0.0708837 2.58931948
N2 N 3.449237 -0.099934 2.90727249
N2 N 3.550763 -0.099934 2.59272751
Co Co 3.5 0.01922(60) 3.25
Co Co 4.0 0.51922(60) 3.25
Co Co 4.0 0.48078(60) 2.75
C7 C 3.6624417 0.1862906 3.99367703
C1 C 3.6061245 0.1078061 3.8507728
C2 C 3.599318 0.1548105 4.145331
C3 C 3.6335333 0.1596758 3.995794727
C4 C 3.6913501 0.2129054 3.991559334
C5 C 3.7820007 0.2459965 3.8402578
C6 C 3.7233508 0.2089019 3.8318171
N1 N 3.5549696 0.0708837 3.91068052
N2 N 3.550763 0.099934 4.09272751
H1 H 3.6202345 0.0989244 3.7290026
H2 H 3.6078387 0.1845275 4.2654433
H5 H 3.8038716 0.2432603 3.7310814
H6 H 3.7051373 0.1808133 3.716872
C7 C 3.8375583 0.3137094 4.00632297
C1 C 3.8938755 0.3921939 4.1492272
C2 C 3.900682 0.3451895 3.854669
C3 C 3.8664667 0.3403242 4.004205273
C4 C 3.8086499 0.2870946 4.008440666
C5 C 3.7179993 0.2540035 4.1597422
C6 C 3.7766492 0.2910981 4.1681829
N1 N 3.9450304 0.4291163 4.08931948
N2 N 3.949237 0.400066 3.90727249
H1 H 3.8797655 0.4010756 4.2709974
H2 H 3.8921613 0.3154725 3.7345567
H5 H 3.6961284 0.2567397 4.2689186
H6 H 3.7948627 0.3191867 4.283128
Co Co 3.5 -0.01922(60) 3.75
N1 N 3.4450304 0.0708837 3.58931948
N2 N 3.449237 -0.099934 3.90727249
N2 N 3.550763 -0.099934 3.59272751
Co Co 3.5 0.01922(60) 4.25
Co Co 4.0 0.51922(60) 4.25
Co Co 4.0 0.48078(60) 3.75
C7 C 3.6624417 1.1862906 0.99367703
C1 C 3.6061245 1.1078061 0.8507728
C2 C 3.599318 1.1548105 1.145331
C3 C 3.6335333 1.1596758 0.995794727
C4 C 3.6913501 1.2129054 0.991559334
C5 C 3.7820007 1.2459965 0.8402578
C6 C 3.7233508 1.2089019 0.8318171
N1 N 3.5549696 1.0708837 0.91068052
N2 N 3.550763 1.099934 1.09272751
H1 H 3.6202345 1.0989244 0.7290026
H2 H 3.6078387 1.1845275 1.2654433
H5 H 3.8038716 1.2432603 0.7310814
H6 H 3.7051373 1.1808133 0.716872
C7 C 3.8375583 1.3137094 1.00632297
C1 C 3.8938755 1.3921939 1.1492272
C2 C 3.900682 1.3451895 0.854669
C3 C 3.8664667 1.3403242 1.004205273
C4 C 3.8086499 1.2870946 1.008440666
C5 C 3.7179993 1.2540035 1.1597422
C6 C 3.7766492 1.2910981 1.1681829
N1 N 3.9450304 1.4291163 1.08931948
N2 N 3.949237 1.400066 0.90727249
H1 H 3.8797655 1.4010756 1.2709974
H2 H 3.8921613 1.3154725 0.7345567
H5 H 3.6961284 1.2567397 1.2689186
H6 H 3.7948627 1.3191867 1.283128
Co Co 3.5 0.98078(60) 0.75
N1 N 3.4450304 1.0708837 0.58931948
N2 N 3.449237 0.900066 0.90727249
N2 N 3.550763 0.900066 0.59272751
Co Co 3.5 1.01922(60) 1.25
Co Co 4.0 1.51922(60) 1.25
Co Co 4.0 1.48078(60) 0.75
C7 C 3.6624417 1.1862906 1.99367703
C1 C 3.6061245 1.1078061 1.8507728
C2 C 3.599318 1.1548105 2.145331
C3 C 3.6335333 1.1596758 1.995794727
C4 C 3.6913501 1.2129054 1.991559334
C5 C 3.7820007 1.2459965 1.8402578
C6 C 3.7233508 1.2089019 1.8318171
N1 N 3.5549696 1.0708837 1.91068052
N2 N 3.550763 1.099934 2.09272751
H1 H 3.6202345 1.0989244 1.7290026
H2 H 3.6078387 1.1845275 2.2654433
H5 H 3.8038716 1.2432603 1.7310814
H6 H 3.7051373 1.1808133 1.716872
C7 C 3.8375583 1.3137094 2.00632297
C1 C 3.8938755 1.3921939 2.1492272
C2 C 3.900682 1.3451895 1.854669
C3 C 3.8664667 1.3403242 2.004205273
C4 C 3.8086499 1.2870946 2.008440666
C5 C 3.7179993 1.2540035 2.1597422
C6 C 3.7766492 1.2910981 2.1681829
N1 N 3.9450304 1.4291163 2.08931948
N2 N 3.949237 1.400066 1.90727249
H1 H 3.8797655 1.4010756 2.2709974
H2 H 3.8921613 1.3154725 1.7345567
H5 H 3.6961284 1.2567397 2.2689186
H6 H 3.7948627 1.3191867 2.283128
Co Co 3.5 0.98078(60) 1.75
N1 N 3.4450304 1.0708837 1.58931948
N2 N 3.449237 0.900066 1.90727249
N2 N 3.550763 0.900066 1.59272751
Co Co 3.5 1.01922(60) 2.25
Co Co 4.0 1.51922(60) 2.25
Co Co 4.0 1.48078(60) 1.75
C7 C 3.6624417 1.1862906 2.99367703
C1 C 3.6061245 1.1078061 2.8507728
C2 C 3.599318 1.1548105 3.145331
C3 C 3.6335333 1.1596758 2.995794727
C4 C 3.6913501 1.2129054 2.991559334
C5 C 3.7820007 1.2459965 2.8402578
C6 C 3.7233508 1.2089019 2.8318171
N1 N 3.5549696 1.0708837 2.91068052
N2 N 3.550763 1.099934 3.09272751
H1 H 3.6202345 1.0989244 2.7290026
H2 H 3.6078387 1.1845275 3.2654433
H5 H 3.8038716 1.2432603 2.7310814
H6 H 3.7051373 1.1808133 2.716872
C7 C 3.8375583 1.3137094 3.00632297
C1 C 3.8938755 1.3921939 3.1492272
C2 C 3.900682 1.3451895 2.854669
C3 C 3.8664667 1.3403242 3.004205273
C4 C 3.8086499 1.2870946 3.008440666
C5 C 3.7179993 1.2540035 3.1597422
C6 C 3.7766492 1.2910981 3.1681829
N1 N 3.9450304 1.4291163 3.08931948
N2 N 3.949237 1.400066 2.90727249
H1 H 3.8797655 1.4010756 3.2709974
H2 H 3.8921613 1.3154725 2.7345567
H5 H 3.6961284 1.2567397 3.2689186
H6 H 3.7948627 1.3191867 3.283128
Co Co 3.5 0.98078(60) 2.75
N1 N 3.4450304 1.0708837 2.58931948
N2 N 3.449237 0.900066 2.90727249
N2 N 3.550763 0.900066 2.59272751
Co Co 3.5 1.01922(60) 3.25
Co Co 4.0 1.51922(60) 3.25
Co Co 4.0 1.48078(60) 2.75
C7 C 3.6624417 1.1862906 3.99367703
C1 C 3.6061245 1.1078061 3.8507728
C2 C 3.599318 1.1548105 4.145331
C3 C 3.6335333 1.1596758 3.995794727
C4 C 3.6913501 1.2129054 3.991559334
C5 C 3.7820007 1.2459965 3.8402578
C6 C 3.7233508 1.2089019 3.8318171
N1 N 3.5549696 1.0708837 3.91068052
N2 N 3.550763 1.099934 4.09272751
H1 H 3.6202345 1.0989244 3.7290026
H2 H 3.6078387 1.1845275 4.2654433
H5 H 3.8038716 1.2432603 3.7310814
H6 H 3.7051373 1.1808133 3.716872
C7 C 3.8375583 1.3137094 4.00632297
C1 C 3.8938755 1.3921939 4.1492272
C2 C 3.900682 1.3451895 3.854669
C3 C 3.8664667 1.3403242 4.004205273
C4 C 3.8086499 1.2870946 4.008440666
C5 C 3.7179993 1.2540035 4.1597422
C6 C 3.7766492 1.2910981 4.1681829
N1 N 3.9450304 1.4291163 4.08931948
N2 N 3.949237 1.400066 3.90727249
H1 H 3.8797655 1.4010756 4.2709974
H2 H 3.8921613 1.3154725 3.7345567
H5 H 3.6961284 1.2567397 4.2689186
H6 H 3.7948627 1.3191867 4.283128
Co Co 3.5 0.98078(60) 3.75
N1 N 3.4450304 1.0708837 3.58931948
N2 N 3.449237 0.900066 3.90727249
N2 N 3.550763 0.900066 3.59272751
Co Co 3.5 1.01922(60) 4.25
Co Co 4.0 1.51922(60) 4.25
Co Co 4.0 1.48078(60) 3.75
C7 C 3.6624417 2.1862906 0.99367703
C1 C 3.6061245 2.1078061 0.8507728
C2 C 3.599318 2.1548105 1.145331
C3 C 3.6335333 2.1596758 0.995794727
C4 C 3.6913501 2.2129054 0.991559334
C5 C 3.7820007 2.2459965 0.8402578
C6 C 3.7233508 2.2089019 0.8318171
N1 N 3.5549696 2.0708837 0.91068052
N2 N 3.550763 2.099934 1.09272751
H1 H 3.6202345 2.0989244 0.7290026
H2 H 3.6078387 2.1845275 1.2654433
H5 H 3.8038716 2.2432603 0.7310814
H6 H 3.7051373 2.1808133 0.716872
C7 C 3.8375583 2.3137094 1.00632297
C1 C 3.8938755 2.3921939 1.1492272
C2 C 3.900682 2.3451895 0.854669
C3 C 3.8664667 2.3403242 1.004205273
C4 C 3.8086499 2.2870946 1.008440666
C5 C 3.7179993 2.2540035 1.1597422
C6 C 3.7766492 2.2910981 1.1681829
N1 N 3.9450304 2.4291163 1.08931948
N2 N 3.949237 2.400066 0.90727249
H1 H 3.8797655 2.4010756 1.2709974
H2 H 3.8921613 2.3154725 0.7345567
H5 H 3.6961284 2.2567397 1.2689186
H6 H 3.7948627 2.3191867 1.283128
Co Co 3.5 1.98078(60) 0.75
N1 N 3.4450304 2.0708837 0.58931948
N2 N 3.449237 1.900066 0.90727249
N2 N 3.550763 1.900066 0.59272751
Co Co 3.5 2.01922(60) 1.25
Co Co 4.0 2.51922(60) 1.25
Co Co 4.0 2.48078(60) 0.75
C7 C 3.6624417 2.1862906 1.99367703
C1 C 3.6061245 2.1078061 1.8507728
C2 C 3.599318 2.1548105 2.145331
C3 C 3.6335333 2.1596758 1.995794727
C4 C 3.6913501 2.2129054 1.991559334
C5 C 3.7820007 2.2459965 1.8402578
C6 C 3.7233508 2.2089019 1.8318171
N1 N 3.5549696 2.0708837 1.91068052
N2 N 3.550763 2.099934 2.09272751
H1 H 3.6202345 2.0989244 1.7290026
H2 H 3.6078387 2.1845275 2.2654433
H5 H 3.8038716 2.2432603 1.7310814
H6 H 3.7051373 2.1808133 1.716872
C7 C 3.8375583 2.3137094 2.00632297
C1 C 3.8938755 2.3921939 2.1492272
C2 C 3.900682 2.3451895 1.854669
C3 C 3.8664667 2.3403242 2.004205273
C4 C 3.8086499 2.2870946 2.008440666
C5 C 3.7179993 2.2540035 2.1597422
C6 C 3.7766492 2.2910981 2.1681829
N1 N 3.9450304 2.4291163 2.08931948
N2 N 3.949237 2.400066 1.90727249
H1 H 3.8797655 2.4010756 2.2709974
H2 H 3.8921613 2.3154725 1.7345567
H5 H 3.6961284 2.2567397 2.2689186
H6 H 3.7948627 2.3191867 2.283128
Co Co 3.5 1.98078(60) 1.75
N1 N 3.4450304 2.0708837 1.58931948
N2 N 3.449237 1.900066 1.90727249
N2 N 3.550763 1.900066 1.59272751
Co Co 3.5 2.01922(60) 2.25
Co Co 4.0 2.51922(60) 2.25
Co Co 4.0 2.48078(60) 1.75
C7 C 3.6624417 2.1862906 2.99367703
C1 C 3.6061245 2.1078061 2.8507728
C2 C 3.599318 2.1548105 3.145331
C3 C 3.6335333 2.1596758 2.995794727
C4 C 3.6913501 2.2129054 2.991559334
C5 C 3.7820007 2.2459965 2.8402578
C6 C 3.7233508 2.2089019 2.8318171
N1 N 3.5549696 2.0708837 2.91068052
N2 N 3.550763 2.099934 3.09272751
H1 H 3.6202345 2.0989244 2.7290026
H2 H 3.6078387 2.1845275 3.2654433
H5 H 3.8038716 2.2432603 2.7310814
H6 H 3.7051373 2.1808133 2.716872
C7 C 3.8375583 2.3137094 3.00632297
C1 C 3.8938755 2.3921939 3.1492272
C2 C 3.900682 2.3451895 2.854669
C3 C 3.8664667 2.3403242 3.004205273
C4 C 3.8086499 2.2870946 3.008440666
C5 C 3.7179993 2.2540035 3.1597422
C6 C 3.7766492 2.2910981 3.1681829
N1 N 3.9450304 2.4291163 3.08931948
N2 N 3.949237 2.400066 2.90727249
H1 H 3.8797655 2.4010756 3.2709974
H2 H 3.8921613 2.3154725 2.7345567
H5 H 3.6961284 2.2567397 3.2689186
H6 H 3.7948627 2.3191867 3.283128
Co Co 3.5 1.98078(60) 2.75
N1 N 3.4450304 2.0708837 2.58931948
N2 N 3.449237 1.900066 2.90727249
N2 N 3.550763 1.900066 2.59272751
Co Co 3.5 2.01922(60) 3.25
Co Co 4.0 2.51922(60) 3.25
Co Co 4.0 2.48078(60) 2.75
C7 C 3.6624417 2.1862906 3.99367703
C1 C 3.6061245 2.1078061 3.8507728
C2 C 3.599318 2.1548105 4.145331
C3 C 3.6335333 2.1596758 3.995794727
C4 C 3.6913501 2.2129054 3.991559334
C5 C 3.7820007 2.2459965 3.8402578
C6 C 3.7233508 2.2089019 3.8318171
N1 N 3.5549696 2.0708837 3.91068052
N2 N 3.550763 2.099934 4.09272751
H1 H 3.6202345 2.0989244 3.7290026
H2 H 3.6078387 2.1845275 4.2654433
H5 H 3.8038716 2.2432603 3.7310814
H6 H 3.7051373 2.1808133 3.716872
C7 C 3.8375583 2.3137094 4.00632297
C1 C 3.8938755 2.3921939 4.1492272
C2 C 3.900682 2.3451895 3.854669
C3 C 3.8664667 2.3403242 4.004205273
C4 C 3.8086499 2.2870946 4.008440666
C5 C 3.7179993 2.2540035 4.1597422
C6 C 3.7766492 2.2910981 4.1681829
N1 N 3.9450304 2.4291163 4.08931948
N2 N 3.949237 2.400066 3.90727249
H1 H 3.8797655 2.4010756 4.2709974
H2 H 3.8921613 2.3154725 3.7345567
H5 H 3.6961284 2.2567397 4.2689186
H6 H 3.7948627 2.3191867 4.283128
Co Co 3.5 1.98078(60) 3.75
N1 N 3.4450304 2.0708837 3.58931948
N2 N 3.449237 1.900066 3.90727249
N2 N 3.550763 1.900066 3.59272751
Co Co 3.5 2.01922(60) 4.25
Co Co 4.0 2.51922(60) 4.25
Co Co 4.0 2.48078(60) 3.75
C7 C 3.6624417 3.1862906 0.99367703
C1 C 3.6061245 3.1078061 0.8507728
C2 C 3.599318 3.1548105 1.145331
C3 C 3.6335333 3.1596758 0.995794727
C4 C 3.6913501 3.2129054 0.991559334
C5 C 3.7820007 3.2459965 0.8402578
C6 C 3.7233508 3.2089019 0.8318171
N1 N 3.5549696 3.0708837 0.91068052
N2 N 3.550763 3.099934 1.09272751
H1 H 3.6202345 3.0989244 0.7290026
H2 H 3.6078387 3.1845275 1.2654433
H5 H 3.8038716 3.2432603 0.7310814
H6 H 3.7051373 3.1808133 0.716872
C7 C 3.8375583 3.3137094 1.00632297
C1 C 3.8938755 3.3921939 1.1492272
C2 C 3.900682 3.3451895 0.854669
C3 C 3.8664667 3.3403242 1.004205273
C4 C 3.8086499 3.2870946 1.008440666
C5 C 3.7179993 3.2540035 1.1597422
C6 C 3.7766492 3.2910981 1.1681829
N1 N 3.9450304 3.4291163 1.08931948
N2 N 3.949237 3.400066 0.90727249
H1 H 3.8797655 3.4010756 1.2709974
H2 H 3.8921613 3.3154725 0.7345567
H5 H 3.6961284 3.2567397 1.2689186
H6 H 3.7948627 3.3191867 1.283128
Co Co 3.5 2.98078(60) 0.75
N1 N 3.4450304 3.0708837 0.58931948
N2 N 3.449237 2.900066 0.90727249
N2 N 3.550763 2.900066 0.59272751
Co Co 3.5 3.01922(60) 1.25
Co Co 4.0 3.51922(60) 1.25
Co Co 4.0 3.48078(60) 0.75
C7 C 3.6624417 3.1862906 1.99367703
C1 C 3.6061245 3.1078061 1.8507728
C2 C 3.599318 3.1548105 2.145331
C3 C 3.6335333 3.1596758 1.995794727
C4 C 3.6913501 3.2129054 1.991559334
C5 C 3.7820007 3.2459965 1.8402578
C6 C 3.7233508 3.2089019 1.8318171
N1 N 3.5549696 3.0708837 1.91068052
N2 N 3.550763 3.099934 2.09272751
H1 H 3.6202345 3.0989244 1.7290026
H2 H 3.6078387 3.1845275 2.2654433
H5 H 3.8038716 3.2432603 1.7310814
H6 H 3.7051373 3.1808133 1.716872
C7 C 3.8375583 3.3137094 2.00632297
C1 C 3.8938755 3.3921939 2.1492272
C2 C 3.900682 3.3451895 1.854669
C3 C 3.8664667 3.3403242 2.004205273
C4 C 3.8086499 3.2870946 2.008440666
C5 C 3.7179993 3.2540035 2.1597422
C6 C 3.7766492 3.2910981 2.1681829
N1 N 3.9450304 3.4291163 2.08931948
N2 N 3.949237 3.400066 1.90727249
H1 H 3.8797655 3.4010756 2.2709974
H2 H 3.8921613 3.3154725 1.7345567
H5 H 3.6961284 3.2567397 2.2689186
H6 H 3.7948627 3.3191867 2.283128
Co Co 3.5 2.98078(60) 1.75
N1 N 3.4450304 3.0708837 1.58931948
N2 N 3.449237 2.900066 1.90727249
N2 N 3.550763 2.900066 1.59272751
Co Co 3.5 3.01922(60) 2.25
Co Co 4.0 3.51922(60) 2.25
Co Co 4.0 3.48078(60) 1.75
C7 C 3.6624417 3.1862906 2.99367703
C1 C 3.6061245 3.1078061 2.8507728
C2 C 3.599318 3.1548105 3.145331
C3 C 3.6335333 3.1596758 2.995794727
C4 C 3.6913501 3.2129054 2.991559334
C5 C 3.7820007 3.2459965 2.8402578
C6 C 3.7233508 3.2089019 2.8318171
N1 N 3.5549696 3.0708837 2.91068052
N2 N 3.550763 3.099934 3.09272751
H1 H 3.6202345 3.0989244 2.7290026
H2 H 3.6078387 3.1845275 3.2654433
H5 H 3.8038716 3.2432603 2.7310814
H6 H 3.7051373 3.1808133 2.716872
C7 C 3.8375583 3.3137094 3.00632297
C1 C 3.8938755 3.3921939 3.1492272
C2 C 3.900682 3.3451895 2.854669
C3 C 3.8664667 3.3403242 3.004205273
C4 C 3.8086499 3.2870946 3.008440666
C5 C 3.7179993 3.2540035 3.1597422
C6 C 3.7766492 3.2910981 3.1681829
N1 N 3.9450304 3.4291163 3.08931948
N2 N 3.949237 3.400066 2.90727249
H1 H 3.8797655 3.4010756 3.2709974
H2 H 3.8921613 3.3154725 2.7345567
H5 H 3.6961284 3.2567397 3.2689186
H6 H 3.7948627 3.3191867 3.283128
Co Co 3.5 2.98078(60) 2.75
N1 N 3.4450304 3.0708837 2.58931948
N2 N 3.449237 2.900066 2.90727249
N2 N 3.550763 2.900066 2.59272751
Co Co 3.5 3.01922(60) 3.25
Co Co 4.0 3.51922(60) 3.25
Co Co 4.0 3.48078(60) 2.75
C7 C 3.6624417 3.1862906 3.99367703
C1 C 3.6061245 3.1078061 3.8507728
C2 C 3.599318 3.1548105 4.145331
C3 C 3.6335333 3.1596758 3.995794727
C4 C 3.6913501 3.2129054 3.991559334
C5 C 3.7820007 3.2459965 3.8402578
C6 C 3.7233508 3.2089019 3.8318171
N1 N 3.5549696 3.0708837 3.91068052
N2 N 3.550763 3.099934 4.09272751
H1 H 3.6202345 3.0989244 3.7290026
H2 H 3.6078387 3.1845275 4.2654433
H5 H 3.8038716 3.2432603 3.7310814
H6 H 3.7051373 3.1808133 3.716872
C7 C 3.8375583 3.3137094 4.00632297
C1 C 3.8938755 3.3921939 4.1492272
C2 C 3.900682 3.3451895 3.854669
C3 C 3.8664667 3.3403242 4.004205273
C4 C 3.8086499 3.2870946 4.008440666
C5 C 3.7179993 3.2540035 4.1597422
C6 C 3.7766492 3.2910981 4.1681829
N1 N 3.9450304 3.4291163 4.08931948
N2 N 3.949237 3.400066 3.90727249
H1 H 3.8797655 3.4010756 4.2709974
H2 H 3.8921613 3.3154725 3.7345567
H5 H 3.6961284 3.2567397 4.2689186
H6 H 3.7948627 3.3191867 4.283128
Co Co 3.5 2.98078(60) 3.75
N1 N 3.4450304 3.0708837 3.58931948
N2 N 3.449237 2.900066 3.90727249
N2 N 3.550763 2.900066 3.59272751
Co Co 3.5 3.01922(60) 4.25
Co Co 4.0 3.51922(60) 4.25
Co Co 4.0 3.48078(60) 3.75
C7 C 0.6624417 0.8137094 0.49367703
C1 C 0.6061245 0.8921939 0.3507728
C2 C 0.599318 0.8451895 0.645331
C3 C 0.6335333 0.8403242 0.495794727
C4 C 0.6913501 0.7870946 0.491559334
C5 C 0.7820007 0.7540035 0.3402578
C6 C 0.7233508 0.7910981 0.3318171
N1 N 0.5549696 0.9291163 0.41068052
H1 H 0.6202345 0.9010756 0.2290026
H2 H 0.6078387 0.8154725 0.7654433
H5 H 0.8038716 0.7567397 0.2310814
H6 H 0.7051373 0.8191867 0.216872
C7 C 0.8375583 0.6862906 0.50632297
C1 C 0.8938755 0.6078061 0.6492272
C2 C 0.900682 0.6548105 0.354669
C3 C 0.8664667 0.6596758 0.504205273
C4 C 0.8086499 0.7129054 0.508440666
C5 C 0.7179993 0.7459965 0.6597422
C6 C 0.7766492 0.7089019 0.6681829
N1 N 0.9450304 0.5708837 0.58931948
N2 N 0.949237 0.599934 0.40727249
H1 H 0.8797655 0.5989244 0.7709974
H2 H 0.8921613 0.6845275 0.2345567
H5 H 0.6961284 0.7432603 0.7689186
H6 H 0.7948627 0.6808133 0.783128
Co Co 0.5 1.01922(60) 0.25
N1 N 0.4450304 0.9291163 0.08931948
N2 N 0.449237 1.099934 0.40727249
N2 N 0.550763 1.099934 0.09272751
Co Co 1.0 0.51922(60) 0.25
C7 C 0.6624417 0.8137094 1.49367703
C1 C 0.6061245 0.8921939 1.3507728
C2 C 0.599318 0.8451895 1.645331
C3 C 0.6335333 0.8403242 1.495794727
C4 C 0.6913501 0.7870946 1.491559334
C5 C 0.7820007 0.7540035 1.3402578
C6 C 0.7233508 0.7910981 1.3318171
N1 N 0.5549696 0.9291163 1.41068052
H1 H 0.6202345 0.9010756 1.2290026
H2 H 0.6078387 0.8154725 1.7654433
H5 H 0.8038716 0.7567397 1.2310814
H6 H 0.7051373 0.8191867 1.216872
C7 C 0.8375583 0.6862906 1.50632297
C1 C 0.8938755 0.6078061 1.6492272
C2 C 0.900682 0.6548105 1.354669
C3 C 0.8664667 0.6596758 1.504205273
C4 C 0.8086499 0.7129054 1.508440666
C5 C 0.7179993 0.7459965 1.6597422
C6 C 0.7766492 0.7089019 1.6681829
N1 N 0.9450304 0.5708837 1.58931948
N2 N 0.949237 0.599934 1.40727249
H1 H 0.8797655 0.5989244 1.7709974
H2 H 0.8921613 0.6845275 1.2345567
H5 H 0.6961284 0.7432603 1.7689186
H6 H 0.7948627 0.6808133 1.783128
N1 N 0.4450304 0.9291163 1.08931948
N2 N 0.449237 1.099934 1.40727249
C7 C 0.6624417 0.8137094 2.49367703
C1 C 0.6061245 0.8921939 2.3507728
C2 C 0.599318 0.8451895 2.645331
C3 C 0.6335333 0.8403242 2.495794727
C4 C 0.6913501 0.7870946 2.491559334
C5 C 0.7820007 0.7540035 2.3402578
C6 C 0.7233508 0.7910981 2.3318171
N1 N 0.5549696 0.9291163 2.41068052
H1 H 0.6202345 0.9010756 2.2290026
H2 H 0.6078387 0.8154725 2.7654433
H5 H 0.8038716 0.7567397 2.2310814
H6 H 0.7051373 0.8191867 2.216872
C7 C 0.8375583 0.6862906 2.50632297
C1 C 0.8938755 0.6078061 2.6492272
C2 C 0.900682 0.6548105 2.354669
C3 C 0.8664667 0.6596758 2.504205273
C4 C 0.8086499 0.7129054 2.508440666
C5 C 0.7179993 0.7459965 2.6597422
C6 C 0.7766492 0.7089019 2.6681829
N1 N 0.9450304 0.5708837 2.58931948
N2 N 0.949237 0.599934 2.40727249
H1 H 0.8797655 0.5989244 2.7709974
H2 H 0.8921613 0.6845275 2.2345567
H5 H 0.6961284 0.7432603 2.7689186
H6 H 0.7948627 0.6808133 2.783128
N1 N 0.4450304 0.9291163 2.08931948
N2 N 0.449237 1.099934 2.40727249
C7 C 0.6624417 0.8137094 3.49367703
C1 C 0.6061245 0.8921939 3.3507728
C2 C 0.599318 0.8451895 3.645331
C3 C 0.6335333 0.8403242 3.495794727
C4 C 0.6913501 0.7870946 3.491559334
C5 C 0.7820007 0.7540035 3.3402578
C6 C 0.7233508 0.7910981 3.3318171
N1 N 0.5549696 0.9291163 3.41068052
H1 H 0.6202345 0.9010756 3.2290026
H2 H 0.6078387 0.8154725 3.7654433
H5 H 0.8038716 0.7567397 3.2310814
H6 H 0.7051373 0.8191867 3.216872
C7 C 0.8375583 0.6862906 3.50632297
C1 C 0.8938755 0.6078061 3.6492272
C2 C 0.900682 0.6548105 3.354669
C3 C 0.8664667 0.6596758 3.504205273
C4 C 0.8086499 0.7129054 3.508440666
C5 C 0.7179993 0.7459965 3.6597422
C6 C 0.7766492 0.7089019 3.6681829
N1 N 0.9450304 0.5708837 3.58931948
N2 N 0.949237 0.599934 3.40727249
H1 H 0.8797655 0.5989244 3.7709974
H2 H 0.8921613 0.6845275 3.2345567
H5 H 0.6961284 0.7432603 3.7689186
H6 H 0.7948627 0.6808133 3.783128
N1 N 0.4450304 0.9291163 3.08931948
N2 N 0.449237 1.099934 3.40727249
C7 C 0.6624417 1.8137094 0.49367703
C1 C 0.6061245 1.8921939 0.3507728
C2 C 0.599318 1.8451895 0.645331
C3 C 0.6335333 1.8403242 0.495794727
C4 C 0.6913501 1.7870946 0.491559334
C5 C 0.7820007 1.7540035 0.3402578
C6 C 0.7233508 1.7910981 0.3318171
N1 N 0.5549696 1.9291163 0.41068052
H1 H 0.6202345 1.9010756 0.2290026
H2 H 0.6078387 1.8154725 0.7654433
H5 H 0.8038716 1.7567397 0.2310814
H6 H 0.7051373 1.8191867 0.216872
C7 C 0.8375583 1.6862906 0.50632297
C1 C 0.8938755 1.6078061 0.6492272
C2 C 0.900682 1.6548105 0.354669
C3 C 0.8664667 1.6596758 0.504205273
C4 C 0.8086499 1.7129054 0.508440666
C5 C 0.7179993 1.7459965 0.6597422
C6 C 0.7766492 1.7089019 0.6681829
N1 N 0.9450304 1.5708837 0.58931948
N2 N 0.949237 1.599934 0.40727249
H1 H 0.8797655 1.5989244 0.7709974
H2 H 0.8921613 1.6845275 0.2345567
H5 H 0.6961284 1.7432603 0.7689186
H6 H 0.7948627 1.6808133 0.783128
Co Co 0.5 2.01922(60) 0.25
N1 N 0.4450304 1.9291163 0.08931948
N2 N 0.449237 2.099934 0.40727249
N2 N 0.550763 2.099934 0.09272751
Co Co 1.0 1.51922(60) 0.25
C7 C 0.6624417 1.8137094 1.49367703
C1 C 0.6061245 1.8921939 1.3507728
C2 C 0.599318 1.8451895 1.645331
C3 C 0.6335333 1.8403242 1.495794727
C4 C 0.6913501 1.7870946 1.491559334
C5 C 0.7820007 1.7540035 1.3402578
C6 C 0.7233508 1.7910981 1.3318171
N1 N 0.5549696 1.9291163 1.41068052
H1 H 0.6202345 1.9010756 1.2290026
H2 H 0.6078387 1.8154725 1.7654433
H5 H 0.8038716 1.7567397 1.2310814
H6 H 0.7051373 1.8191867 1.216872
C7 C 0.8375583 1.6862906 1.50632297
C1 C 0.8938755 1.6078061 1.6492272
C2 C 0.900682 1.6548105 1.354669
C3 C 0.8664667 1.6596758 1.504205273
C4 C 0.8086499 1.7129054 1.508440666
C5 C 0.7179993 1.7459965 1.6597422
C6 C 0.7766492 1.7089019 1.6681829
N1 N 0.9450304 1.5708837 1.58931948
N2 N 0.949237 1.599934 1.40727249
H1 H 0.8797655 1.5989244 1.7709974
H2 H 0.8921613 1.6845275 1.2345567
H5 H 0.6961284 1.7432603 1.7689186
H6 H 0.7948627 1.6808133 1.783128
N1 N 0.4450304 1.9291163 1.08931948
N2 N 0.449237 2.099934 1.40727249
C7 C 0.6624417 1.8137094 2.49367703
C1 C 0.6061245 1.8921939 2.3507728
C2 C 0.599318 1.8451895 2.645331
C3 C 0.6335333 1.8403242 2.495794727
C4 C 0.6913501 1.7870946 2.491559334
C5 C 0.7820007 1.7540035 2.3402578
C6 C 0.7233508 1.7910981 2.3318171
N1 N 0.5549696 1.9291163 2.41068052
H1 H 0.6202345 1.9010756 2.2290026
H2 H 0.6078387 1.8154725 2.7654433
H5 H 0.8038716 1.7567397 2.2310814
H6 H 0.7051373 1.8191867 2.216872
C7 C 0.8375583 1.6862906 2.50632297
C1 C 0.8938755 1.6078061 2.6492272
C2 C 0.900682 1.6548105 2.354669
C3 C 0.8664667 1.6596758 2.504205273
C4 C 0.8086499 1.7129054 2.508440666
C5 C 0.7179993 1.7459965 2.6597422
C6 C 0.7766492 1.7089019 2.6681829
N1 N 0.9450304 1.5708837 2.58931948
N2 N 0.949237 1.599934 2.40727249
H1 H 0.8797655 1.5989244 2.7709974
H2 H 0.8921613 1.6845275 2.2345567
H5 H 0.6961284 1.7432603 2.7689186
H6 H 0.7948627 1.6808133 2.783128
N1 N 0.4450304 1.9291163 2.08931948
N2 N 0.449237 2.099934 2.40727249
C7 C 0.6624417 1.8137094 3.49367703
C1 C 0.6061245 1.8921939 3.3507728
C2 C 0.599318 1.8451895 3.645331
C3 C 0.6335333 1.8403242 3.495794727
C4 C 0.6913501 1.7870946 3.491559334
C5 C 0.7820007 1.7540035 3.3402578
C6 C 0.7233508 1.7910981 3.3318171
N1 N 0.5549696 1.9291163 3.41068052
H1 H 0.6202345 1.9010756 3.2290026
H2 H 0.6078387 1.8154725 3.7654433
H5 H 0.8038716 1.7567397 3.2310814
H6 H 0.7051373 1.8191867 3.216872
C7 C 0.8375583 1.6862906 3.50632297
C1 C 0.8938755 1.6078061 3.6492272
C2 C 0.900682 1.6548105 3.354669
C3 C 0.8664667 1.6596758 3.504205273
C4 C 0.8086499 1.7129054 3.508440666
C5 C 0.7179993 1.7459965 3.6597422
C6 C 0.7766492 1.7089019 3.6681829
N1 N 0.9450304 1.5708837 3.58931948
N2 N 0.949237 1.599934 3.40727249
H1 H 0.8797655 1.5989244 3.7709974
H2 H 0.8921613 1.6845275 3.2345567
H5 H 0.6961284 1.7432603 3.7689186
H6 H 0.7948627 1.6808133 3.783128
N1 N 0.4450304 1.9291163 3.08931948
N2 N 0.449237 2.099934 3.40727249
C7 C 0.6624417 2.8137094 0.49367703
C1 C 0.6061245 2.8921939 0.3507728
C2 C 0.599318 2.8451895 0.645331
C3 C 0.6335333 2.8403242 0.495794727
C4 C 0.6913501 2.7870946 0.491559334
C5 C 0.7820007 2.7540035 0.3402578
C6 C 0.7233508 2.7910981 0.3318171
N1 N 0.5549696 2.9291163 0.41068052
H1 H 0.6202345 2.9010756 0.2290026
H2 H 0.6078387 2.8154725 0.7654433
H5 H 0.8038716 2.7567397 0.2310814
H6 H 0.7051373 2.8191867 0.216872
C7 C 0.8375583 2.6862906 0.50632297
C1 C 0.8938755 2.6078061 0.6492272
C2 C 0.900682 2.6548105 0.354669
C3 C 0.8664667 2.6596758 0.504205273
C4 C 0.8086499 2.7129054 0.508440666
C5 C 0.7179993 2.7459965 0.6597422
C6 C 0.7766492 2.7089019 0.6681829
N1 N 0.9450304 2.5708837 0.58931948
N2 N 0.949237 2.599934 0.40727249
H1 H 0.8797655 2.5989244 0.7709974
H2 H 0.8921613 2.6845275 0.2345567
H5 H 0.6961284 2.7432603 0.7689186
H6 H 0.7948627 2.6808133 0.783128
Co Co 0.5 3.01922(60) 0.25
N1 N 0.4450304 2.9291163 0.08931948
N2 N 0.449237 3.099934 0.40727249
N2 N 0.550763 3.099934 0.09272751
Co Co 1.0 2.51922(60) 0.25
C7 C 0.6624417 2.8137094 1.49367703
C1 C 0.6061245 2.8921939 1.3507728
C2 C 0.599318 2.8451895 1.645331
C3 C 0.6335333 2.8403242 1.495794727
C4 C 0.6913501 2.7870946 1.491559334
C5 C 0.7820007 2.7540035 1.3402578
C6 C 0.7233508 2.7910981 1.3318171
N1 N 0.5549696 2.9291163 1.41068052
H1 H 0.6202345 2.9010756 1.2290026
H2 H 0.6078387 2.8154725 1.7654433
H5 H 0.8038716 2.7567397 1.2310814
H6 H 0.7051373 2.8191867 1.216872
C7 C 0.8375583 2.6862906 1.50632297
C1 C 0.8938755 2.6078061 1.6492272
C2 C 0.900682 2.6548105 1.354669
C3 C 0.8664667 2.6596758 1.504205273
C4 C 0.8086499 2.7129054 1.508440666
C5 C 0.7179993 2.7459965 1.6597422
C6 C 0.7766492 2.7089019 1.6681829
N1 N 0.9450304 2.5708837 1.58931948
N2 N 0.949237 2.599934 1.40727249
H1 H 0.8797655 2.5989244 1.7709974
H2 H 0.8921613 2.6845275 1.2345567
H5 H 0.6961284 2.7432603 1.7689186
H6 H 0.7948627 2.6808133 1.783128
N1 N 0.4450304 2.9291163 1.08931948
N2 N 0.449237 3.099934 1.40727249
C7 C 0.6624417 2.8137094 2.49367703
C1 C 0.6061245 2.8921939 2.3507728
C2 C 0.599318 2.8451895 2.645331
C3 C 0.6335333 2.8403242 2.495794727
C4 C 0.6913501 2.7870946 2.491559334
C5 C 0.7820007 2.7540035 2.3402578
C6 C 0.7233508 2.7910981 2.3318171
N1 N 0.5549696 2.9291163 2.41068052
H1 H 0.6202345 2.9010756 2.2290026
H2 H 0.6078387 2.8154725 2.7654433
H5 H 0.8038716 2.7567397 2.2310814
H6 H 0.7051373 2.8191867 2.216872
C7 C 0.8375583 2.6862906 2.50632297
C1 C 0.8938755 2.6078061 2.6492272
C2 C 0.900682 2.6548105 2.354669
C3 C 0.8664667 2.6596758 2.504205273
C4 C 0.8086499 2.7129054 2.508440666
C5 C 0.7179993 2.7459965 2.6597422
C6 C 0.7766492 2.7089019 2.6681829
N1 N 0.9450304 2.5708837 2.58931948
N2 N 0.949237 2.599934 2.40727249
H1 H 0.8797655 2.5989244 2.7709974
H2 H 0.8921613 2.6845275 2.2345567
H5 H 0.6961284 2.7432603 2.7689186
H6 H 0.7948627 2.6808133 2.783128
N1 N 0.4450304 2.9291163 2.08931948
N2 N 0.449237 3.099934 2.40727249
C7 C 0.6624417 2.8137094 3.49367703
C1 C 0.6061245 2.8921939 3.3507728
C2 C 0.599318 2.8451895 3.645331
C3 C 0.6335333 2.8403242 3.495794727
C4 C 0.6913501 2.7870946 3.491559334
C5 C 0.7820007 2.7540035 3.3402578
C6 C 0.7233508 2.7910981 3.3318171
N1 N 0.5549696 2.9291163 3.41068052
H1 H 0.6202345 2.9010756 3.2290026
H2 H 0.6078387 2.8154725 3.7654433
H5 H 0.8038716 2.7567397 3.2310814
H6 H 0.7051373 2.8191867 3.216872
C7 C 0.8375583 2.6862906 3.50632297
C1 C 0.8938755 2.6078061 3.6492272
C2 C 0.900682 2.6548105 3.354669
C3 C 0.8664667 2.6596758 3.504205273
C4 C 0.8086499 2.7129054 3.508440666
C5 C 0.7179993 2.7459965 3.6597422
C6 C 0.7766492 2.7089019 3.6681829
N1 N 0.9450304 2.5708837 3.58931948
N2 N 0.949237 2.599934 3.40727249
H1 H 0.8797655 2.5989244 3.7709974
H2 H 0.8921613 2.6845275 3.2345567
H5 H 0.6961284 2.7432603 3.7689186
H6 H 0.7948627 2.6808133 3.783128
N1 N 0.4450304 2.9291163 3.08931948
N2 N 0.449237 3.099934 3.40727249
C7 C 0.6624417 3.8137094 0.49367703
C1 C 0.6061245 3.8921939 0.3507728
C2 C 0.599318 3.8451895 0.645331
C3 C 0.6335333 3.8403242 0.495794727
C4 C 0.6913501 3.7870946 0.491559334
C5 C 0.7820007 3.7540035 0.3402578
C6 C 0.7233508 3.7910981 0.3318171
N1 N 0.5549696 3.9291163 0.41068052
N2 N 0.550763 3.900066 0.59272751
H1 H 0.6202345 3.9010756 0.2290026
H2 H 0.6078387 3.8154725 0.7654433
H5 H 0.8038716 3.7567397 0.2310814
H6 H 0.7051373 3.8191867 0.216872
C7 C 0.8375583 3.6862906 0.50632297
C1 C 0.8938755 3.6078061 0.6492272
C2 C 0.900682 3.6548105 0.354669
C3 C 0.8664667 3.6596758 0.504205273
C4 C 0.8086499 3.7129054 0.508440666
C5 C 0.7179993 3.7459965 0.6597422
C6 C 0.7766492 3.7089019 0.6681829
N1 N 0.9450304 3.5708837 0.58931948
N2 N 0.949237 3.599934 0.40727249
H1 H 0.8797655 3.5989244 0.7709974
H2 H 0.8921613 3.6845275 0.2345567
H5 H 0.6961284 3.7432603 0.7689186
H6 H 0.7948627 3.6808133 0.783128
Co Co 0.5 4.01922(60) 0.25
N1 N 0.4450304 3.9291163 0.08931948
N2 N 0.449237 4.099934 0.40727249
N2 N 0.550763 4.099934 0.09272751
Co Co 0.5 3.98078(60) 0.75
Co Co 1.0 3.51922(60) 0.25
C7 C 0.6624417 3.8137094 1.49367703
C1 C 0.6061245 3.8921939 1.3507728
C2 C 0.599318 3.8451895 1.645331
C3 C 0.6335333 3.8403242 1.495794727
C4 C 0.6913501 3.7870946 1.491559334
C5 C 0.7820007 3.7540035 1.3402578
C6 C 0.7233508 3.7910981 1.3318171
N1 N 0.5549696 3.9291163 1.41068052
N2 N 0.550763 3.900066 1.59272751
H1 H 0.6202345 3.9010756 1.2290026
H2 H 0.6078387 3.8154725 1.7654433
H5 H 0.8038716 3.7567397 1.2310814
H6 H 0.7051373 3.8191867 1.216872
C7 C 0.8375583 3.6862906 1.50632297
C1 C 0.8938755 3.6078061 1.6492272
C2 C 0.900682 3.6548105 1.354669
C3 C 0.8664667 3.6596758 1.504205273
C4 C 0.8086499 3.7129054 1.508440666
C5 C 0.7179993 3.7459965 1.6597422
C6 C 0.7766492 3.7089019 1.6681829
N1 N 0.9450304 3.5708837 1.58931948
N2 N 0.949237 3.599934 1.40727249
H1 H 0.8797655 3.5989244 1.7709974
H2 H 0.8921613 3.6845275 1.2345567
H5 H 0.6961284 3.7432603 1.7689186
H6 H 0.7948627 3.6808133 1.783128
Co Co 0.5 4.01922(60) 1.25
N1 N 0.4450304 3.9291163 1.08931948
N2 N 0.449237 4.099934 1.40727249
N2 N 0.550763 4.099934 1.09272751
Co Co 0.5 3.98078(60) 1.75
C7 C 0.6624417 3.8137094 2.49367703
C1 C 0.6061245 3.8921939 2.3507728
C2 C 0.599318 3.8451895 2.645331
C3 C 0.6335333 3.8403242 2.495794727
C4 C 0.6913501 3.7870946 2.491559334
C5 C 0.7820007 3.7540035 2.3402578
C6 C 0.7233508 3.7910981 2.3318171
N1 N 0.5549696 3.9291163 2.41068052
N2 N 0.550763 3.900066 2.59272751
H1 H 0.6202345 3.9010756 2.2290026
H2 H 0.6078387 3.8154725 2.7654433
H5 H 0.8038716 3.7567397 2.2310814
H6 H 0.7051373 3.8191867 2.216872
C7 C 0.8375583 3.6862906 2.50632297
C1 C 0.8938755 3.6078061 2.6492272
C2 C 0.900682 3.6548105 2.354669
C3 C 0.8664667 3.6596758 2.504205273
C4 C 0.8086499 3.7129054 2.508440666
C5 C 0.7179993 3.7459965 2.6597422
C6 C 0.7766492 3.7089019 2.6681829
N1 N 0.9450304 3.5708837 2.58931948
N2 N 0.949237 3.599934 2.40727249
H1 H 0.8797655 3.5989244 2.7709974
H2 H 0.8921613 3.6845275 2.2345567
H5 H 0.6961284 3.7432603 2.7689186
H6 H 0.7948627 3.6808133 2.783128
Co Co 0.5 4.01922(60) 2.25
N1 N 0.4450304 3.9291163 2.08931948
N2 N 0.449237 4.099934 2.40727249
N2 N 0.550763 4.099934 2.09272751
Co Co 0.5 3.98078(60) 2.75
C7 C 0.6624417 3.8137094 3.49367703
C1 C 0.6061245 3.8921939 3.3507728
C2 C 0.599318 3.8451895 3.645331
C3 C 0.6335333 3.8403242 3.495794727
C4 C 0.6913501 3.7870946 3.491559334
C5 C 0.7820007 3.7540035 3.3402578
C6 C 0.7233508 3.7910981 3.3318171
N1 N 0.5549696 3.9291163 3.41068052
N2 N 0.550763 3.900066 3.59272751
H1 H 0.6202345 3.9010756 3.2290026
H2 H 0.6078387 3.8154725 3.7654433
H5 H 0.8038716 3.7567397 3.2310814
H6 H 0.7051373 3.8191867 3.216872
C7 C 0.8375583 3.6862906 3.50632297
C1 C 0.8938755 3.6078061 3.6492272
C2 C 0.900682 3.6548105 3.354669
C3 C 0.8664667 3.6596758 3.504205273
C4 C 0.8086499 3.7129054 3.508440666
C5 C 0.7179993 3.7459965 3.6597422
C6 C 0.7766492 3.7089019 3.6681829
N1 N 0.9450304 3.5708837 3.58931948
N2 N 0.949237 3.599934 3.40727249
H1 H 0.8797655 3.5989244 3.7709974
H2 H 0.8921613 3.6845275 3.2345567
H5 H 0.6961284 3.7432603 3.7689186
H6 H 0.7948627 3.6808133 3.783128
Co Co 0.5 4.01922(60) 3.25
N1 N 0.4450304 3.9291163 3.08931948
N2 N 0.449237 4.099934 3.40727249
N2 N 0.550763 4.099934 3.09272751
Co Co 0.5 3.98078(60) 3.75
C7 C 1.6624417 0.8137094 0.49367703
C1 C 1.6061245 0.8921939 0.3507728
C2 C 1.599318 0.8451895 0.645331
C3 C 1.6335333 0.8403242 0.495794727
C4 C 1.6913501 0.7870946 0.491559334
C5 C 1.7820007 0.7540035 0.3402578
C6 C 1.7233508 0.7910981 0.3318171
N1 N 1.5549696 0.9291163 0.41068052
H1 H 1.6202345 0.9010756 0.2290026
H2 H 1.6078387 0.8154725 0.7654433
H5 H 1.8038716 0.7567397 0.2310814
H6 H 1.7051373 0.8191867 0.216872
C7 C 1.8375583 0.6862906 0.50632297
C1 C 1.8938755 0.6078061 0.6492272
C2 C 1.900682 0.6548105 0.354669
C3 C 1.8664667 0.6596758 0.504205273
C4 C 1.8086499 0.7129054 0.508440666
C5 C 1.7179993 0.7459965 0.6597422
C6 C 1.7766492 0.7089019 0.6681829
N1 N 1.9450304 0.5708837 0.58931948
N2 N 1.949237 0.599934 0.40727249
H1 H 1.8797655 0.5989244 0.7709974
H2 H 1.8921613 0.6845275 0.2345567
H5 H 1.6961284 0.7432603 0.7689186
H6 H 1.7948627 0.6808133 0.783128
Co Co 1.5 1.01922(60) 0.25
N1 N 1.4450304 0.9291163 0.08931948
N2 N 1.449237 1.099934 0.40727249
N2 N 1.550763 1.099934 0.09272751
Co Co 2.0 0.51922(60) 0.25
C7 C 1.6624417 0.8137094 1.49367703
C1 C 1.6061245 0.8921939 1.3507728
C2 C 1.599318 0.8451895 1.645331
C3 C 1.6335333 0.8403242 1.495794727
C4 C 1.6913501 0.7870946 1.491559334
C5 C 1.7820007 0.7540035 1.3402578
C6 C 1.7233508 0.7910981 1.3318171
N1 N 1.5549696 0.9291163 1.41068052
H1 H 1.6202345 0.9010756 1.2290026
H2 H 1.6078387 0.8154725 1.7654433
H5 H 1.8038716 0.7567397 1.2310814
H6 H 1.7051373 0.8191867 1.216872
C7 C 1.8375583 0.6862906 1.50632297
C1 C 1.8938755 0.6078061 1.6492272
C2 C 1.900682 0.6548105 1.354669
C3 C 1.8664667 0.6596758 1.504205273
C4 C 1.8086499 0.7129054 1.508440666
C5 C 1.7179993 0.7459965 1.6597422
C6 C 1.7766492 0.7089019 1.6681829
N1 N 1.9450304 0.5708837 1.58931948
N2 N 1.949237 0.599934 1.40727249
H1 H 1.8797655 0.5989244 1.7709974
H2 H 1.8921613 0.6845275 1.2345567
H5 H 1.6961284 0.7432603 1.7689186
H6 H 1.7948627 0.6808133 1.783128
N1 N 1.4450304 0.9291163 1.08931948
N2 N 1.449237 1.099934 1.40727249
C7 C 1.6624417 0.8137094 2.49367703
C1 C 1.6061245 0.8921939 2.3507728
C2 C 1.599318 0.8451895 2.645331
C3 C 1.6335333 0.8403242 2.495794727
C4 C 1.6913501 0.7870946 2.491559334
C5 C 1.7820007 0.7540035 2.3402578
C6 C 1.7233508 0.7910981 2.3318171
N1 N 1.5549696 0.9291163 2.41068052
H1 H 1.6202345 0.9010756 2.2290026
H2 H 1.6078387 0.8154725 2.7654433
H5 H 1.8038716 0.7567397 2.2310814
H6 H 1.7051373 0.8191867 2.216872
C7 C 1.8375583 0.6862906 2.50632297
C1 C 1.8938755 0.6078061 2.6492272
C2 C 1.900682 0.6548105 2.354669
C3 C 1.8664667 0.6596758 2.504205273
C4 C 1.8086499 0.7129054 2.508440666
C5 C 1.7179993 0.7459965 2.6597422
C6 C 1.7766492 0.7089019 2.6681829
N1 N 1.9450304 0.5708837 2.58931948
N2 N 1.949237 0.599934 2.40727249
H1 H 1.8797655 0.5989244 2.7709974
H2 H 1.8921613 0.6845275 2.2345567
H5 H 1.6961284 0.7432603 2.7689186
H6 H 1.7948627 0.6808133 2.783128
N1 N 1.4450304 0.9291163 2.08931948
N2 N 1.449237 1.099934 2.40727249
C7 C 1.6624417 0.8137094 3.49367703
C1 C 1.6061245 0.8921939 3.3507728
C2 C 1.599318 0.8451895 3.645331
C3 C 1.6335333 0.8403242 3.495794727
C4 C 1.6913501 0.7870946 3.491559334
C5 C 1.7820007 0.7540035 3.3402578
C6 C 1.7233508 0.7910981 3.3318171
N1 N 1.5549696 0.9291163 3.41068052
H1 H 1.6202345 0.9010756 3.2290026
H2 H 1.6078387 0.8154725 3.7654433
H5 H 1.8038716 0.7567397 3.2310814
H6 H 1.7051373 0.8191867 3.216872
C7 C 1.8375583 0.6862906 3.50632297
C1 C 1.8938755 0.6078061 3.6492272
C2 C 1.900682 0.6548105 3.354669
C3 C 1.8664667 0.6596758 3.504205273
C4 C 1.8086499 0.7129054 3.508440666
C5 C 1.7179993 0.7459965 3.6597422
C6 C 1.7766492 0.7089019 3.6681829
N1 N 1.9450304 0.5708837 3.58931948
N2 N 1.949237 0.599934 3.40727249
H1 H 1.8797655 0.5989244 3.7709974
H2 H 1.8921613 0.6845275 3.2345567
H5 H 1.6961284 0.7432603 3.7689186
H6 H 1.7948627 0.6808133 3.783128
N1 N 1.4450304 0.9291163 3.08931948
N2 N 1.449237 1.099934 3.40727249
C7 C 1.6624417 1.8137094 0.49367703
C1 C 1.6061245 1.8921939 0.3507728
C2 C 1.599318 1.8451895 0.645331
C3 C 1.6335333 1.8403242 0.495794727
C4 C 1.6913501 1.7870946 0.491559334
C5 C 1.7820007 1.7540035 0.3402578
C6 C 1.7233508 1.7910981 0.3318171
N1 N 1.5549696 1.9291163 0.41068052
H1 H 1.6202345 1.9010756 0.2290026
H2 H 1.6078387 1.8154725 0.7654433
H5 H 1.8038716 1.7567397 0.2310814
H6 H 1.7051373 1.8191867 0.216872
C7 C 1.8375583 1.6862906 0.50632297
C1 C 1.8938755 1.6078061 0.6492272
C2 C 1.900682 1.6548105 0.354669
C3 C 1.8664667 1.6596758 0.504205273
C4 C 1.8086499 1.7129054 0.508440666
C5 C 1.7179993 1.7459965 0.6597422
C6 C 1.7766492 1.7089019 0.6681829
N1 N 1.9450304 1.5708837 0.58931948
N2 N 1.949237 1.599934 0.40727249
H1 H 1.8797655 1.5989244 0.7709974
H2 H 1.8921613 1.6845275 0.2345567
H5 H 1.6961284 1.7432603 0.7689186
H6 H 1.7948627 1.6808133 0.783128
Co Co 1.5 2.01922(60) 0.25
N1 N 1.4450304 1.9291163 0.08931948
N2 N 1.449237 2.099934 0.40727249
N2 N 1.550763 2.099934 0.09272751
Co Co 2.0 1.51922(60) 0.25
C7 C 1.6624417 1.8137094 1.49367703
C1 C 1.6061245 1.8921939 1.3507728
C2 C 1.599318 1.8451895 1.645331
C3 C 1.6335333 1.8403242 1.495794727
C4 C 1.6913501 1.7870946 1.491559334
C5 C 1.7820007 1.7540035 1.3402578
C6 C 1.7233508 1.7910981 1.3318171
N1 N 1.5549696 1.9291163 1.41068052
H1 H 1.6202345 1.9010756 1.2290026
H2 H 1.6078387 1.8154725 1.7654433
H5 H 1.8038716 1.7567397 1.2310814
H6 H 1.7051373 1.8191867 1.216872
C7 C 1.8375583 1.6862906 1.50632297
C1 C 1.8938755 1.6078061 1.6492272
C2 C 1.900682 1.6548105 1.354669
C3 C 1.8664667 1.6596758 1.504205273
C4 C 1.8086499 1.7129054 1.508440666
C5 C 1.7179993 1.7459965 1.6597422
C6 C 1.7766492 1.7089019 1.6681829
N1 N 1.9450304 1.5708837 1.58931948
N2 N 1.949237 1.599934 1.40727249
H1 H 1.8797655 1.5989244 1.7709974
H2 H 1.8921613 1.6845275 1.2345567
H5 H 1.6961284 1.7432603 1.7689186
H6 H 1.7948627 1.6808133 1.783128
N1 N 1.4450304 1.9291163 1.08931948
N2 N 1.449237 2.099934 1.40727249
C7 C 1.6624417 1.8137094 2.49367703
C1 C 1.6061245 1.8921939 2.3507728
C2 C 1.599318 1.8451895 2.645331
C3 C 1.6335333 1.8403242 2.495794727
C4 C 1.6913501 1.7870946 2.491559334
C5 C 1.7820007 1.7540035 2.3402578
C6 C 1.7233508 1.7910981 2.3318171
N1 N 1.5549696 1.9291163 2.41068052
H1 H 1.6202345 1.9010756 2.2290026
H2 H 1.6078387 1.8154725 2.7654433
H5 H 1.8038716 1.7567397 2.2310814
H6 H 1.7051373 1.8191867 2.216872
C7 C 1.8375583 1.6862906 2.50632297
C1 C 1.8938755 1.6078061 2.6492272
C2 C 1.900682 1.6548105 2.354669
C3 C 1.8664667 1.6596758 2.504205273
C4 C 1.8086499 1.7129054 2.508440666
C5 C 1.7179993 1.7459965 2.6597422
C6 C 1.7766492 1.7089019 2.6681829
N1 N 1.9450304 1.5708837 2.58931948
N2 N 1.949237 1.599934 2.40727249
H1 H 1.8797655 1.5989244 2.7709974
H2 H 1.8921613 1.6845275 2.2345567
H5 H 1.6961284 1.7432603 2.7689186
H6 H 1.7948627 1.6808133 2.783128
N1 N 1.4450304 1.9291163 2.08931948
N2 N 1.449237 2.099934 2.40727249
C7 C 1.6624417 1.8137094 3.49367703
C1 C 1.6061245 1.8921939 3.3507728
C2 C 1.599318 1.8451895 3.645331
C3 C 1.6335333 1.8403242 3.495794727
C4 C 1.6913501 1.7870946 3.491559334
C5 C 1.7820007 1.7540035 3.3402578
C6 C 1.7233508 1.7910981 3.3318171
N1 N 1.5549696 1.9291163 3.41068052
H1 H 1.6202345 1.9010756 3.2290026
H2 H 1.6078387 1.8154725 3.7654433
H5 H 1.8038716 1.7567397 3.2310814
H6 H 1.7051373 1.8191867 3.216872
C7 C 1.8375583 1.6862906 3.50632297
C1 C 1.8938755 1.6078061 3.6492272
C2 C 1.900682 1.6548105 3.354669
C3 C 1.8664667 1.6596758 3.504205273
C4 C 1.8086499 1.7129054 3.508440666
C5 C 1.7179993 1.7459965 3.6597422
C6 C 1.7766492 1.7089019 3.6681829
N1 N 1.9450304 1.5708837 3.58931948
N2 N 1.949237 1.599934 3.40727249
H1 H 1.8797655 1.5989244 3.7709974
H2 H 1.8921613 1.6845275 3.2345567
H5 H 1.6961284 1.7432603 3.7689186
H6 H 1.7948627 1.6808133 3.783128
N1 N 1.4450304 1.9291163 3.08931948
N2 N 1.449237 2.099934 3.40727249
C7 C 1.6624417 2.8137094 0.49367703
C1 C 1.6061245 2.8921939 0.3507728
C2 C 1.599318 2.8451895 0.645331
C3 C 1.6335333 2.8403242 0.495794727
C4 C 1.6913501 2.7870946 0.491559334
C5 C 1.7820007 2.7540035 0.3402578
C6 C 1.7233508 2.7910981 0.3318171
N1 N 1.5549696 2.9291163 0.41068052
H1 H 1.6202345 2.9010756 0.2290026
H2 H 1.6078387 2.8154725 0.7654433
H5 H 1.8038716 2.7567397 0.2310814
H6 H 1.7051373 2.8191867 0.216872
C7 C 1.8375583 2.6862906 0.50632297
C1 C 1.8938755 2.6078061 0.6492272
C2 C 1.900682 2.6548105 0.354669
C3 C 1.8664667 2.6596758 0.504205273
C4 C 1.8086499 2.7129054 0.508440666
C5 C 1.7179993 2.7459965 0.6597422
C6 C 1.7766492 2.7089019 0.6681829
N1 N 1.9450304 2.5708837 0.58931948
N2 N 1.949237 2.599934 0.40727249
H1 H 1.8797655 2.5989244 0.7709974
H2 H 1.8921613 2.6845275 0.2345567
H5 H 1.6961284 2.7432603 0.7689186
H6 H 1.7948627 2.6808133 0.783128
Co Co 1.5 3.01922(60) 0.25
N1 N 1.4450304 2.9291163 0.08931948
N2 N 1.449237 3.099934 0.40727249
N2 N 1.550763 3.099934 0.09272751
Co Co 2.0 2.51922(60) 0.25
C7 C 1.6624417 2.8137094 1.49367703
C1 C 1.6061245 2.8921939 1.3507728
C2 C 1.599318 2.8451895 1.645331
C3 C 1.6335333 2.8403242 1.495794727
C4 C 1.6913501 2.7870946 1.491559334
C5 C 1.7820007 2.7540035 1.3402578
C6 C 1.7233508 2.7910981 1.3318171
N1 N 1.5549696 2.9291163 1.41068052
H1 H 1.6202345 2.9010756 1.2290026
H2 H 1.6078387 2.8154725 1.7654433
H5 H 1.8038716 2.7567397 1.2310814
H6 H 1.7051373 2.8191867 1.216872
C7 C 1.8375583 2.6862906 1.50632297
C1 C 1.8938755 2.6078061 1.6492272
C2 C 1.900682 2.6548105 1.354669
C3 C 1.8664667 2.6596758 1.504205273
C4 C 1.8086499 2.7129054 1.508440666
C5 C 1.7179993 2.7459965 1.6597422
C6 C 1.7766492 2.7089019 1.6681829
N1 N 1.9450304 2.5708837 1.58931948
N2 N 1.949237 2.599934 1.40727249
H1 H 1.8797655 2.5989244 1.7709974
H2 H 1.8921613 2.6845275 1.2345567
H5 H 1.6961284 2.7432603 1.7689186
H6 H 1.7948627 2.6808133 1.783128
N1 N 1.4450304 2.9291163 1.08931948
N2 N 1.449237 3.099934 1.40727249
C7 C 1.6624417 2.8137094 2.49367703
C1 C 1.6061245 2.8921939 2.3507728
C2 C 1.599318 2.8451895 2.645331
C3 C 1.6335333 2.8403242 2.495794727
C4 C 1.6913501 2.7870946 2.491559334
C5 C 1.7820007 2.7540035 2.3402578
C6 C 1.7233508 2.7910981 2.3318171
N1 N 1.5549696 2.9291163 2.41068052
H1 H 1.6202345 2.9010756 2.2290026
H2 H 1.6078387 2.8154725 2.7654433
H5 H 1.8038716 2.7567397 2.2310814
H6 H 1.7051373 2.8191867 2.216872
C7 C 1.8375583 2.6862906 2.50632297
C1 C 1.8938755 2.6078061 2.6492272
C2 C 1.900682 2.6548105 2.354669
C3 C 1.8664667 2.6596758 2.504205273
C4 C 1.8086499 2.7129054 2.508440666
C5 C 1.7179993 2.7459965 2.6597422
C6 C 1.7766492 2.7089019 2.6681829
N1 N 1.9450304 2.5708837 2.58931948
N2 N 1.949237 2.599934 2.40727249
H1 H 1.8797655 2.5989244 2.7709974
H2 H 1.8921613 2.6845275 2.2345567
H5 H 1.6961284 2.7432603 2.7689186
H6 H 1.7948627 2.6808133 2.783128
N1 N 1.4450304 2.9291163 2.08931948
N2 N 1.449237 3.099934 2.40727249
C7 C 1.6624417 2.8137094 3.49367703
C1 C 1.6061245 2.8921939 3.3507728
C2 C 1.599318 2.8451895 3.645331
C3 C 1.6335333 2.8403242 3.495794727
C4 C 1.6913501 2.7870946 3.491559334
C5 C 1.7820007 2.7540035 3.3402578
C6 C 1.7233508 2.7910981 3.3318171
N1 N 1.5549696 2.9291163 3.41068052
H1 H 1.6202345 2.9010756 3.2290026
H2 H 1.6078387 2.8154725 3.7654433
H5 H 1.8038716 2.7567397 3.2310814
H6 H 1.7051373 2.8191867 3.216872
C7 C 1.8375583 2.6862906 3.50632297
C1 C 1.8938755 2.6078061 3.6492272
C2 C 1.900682 2.6548105 3.354669
C3 C 1.8664667 2.6596758 3.504205273
C4 C 1.8086499 2.7129054 3.508440666
C5 C 1.7179993 2.7459965 3.6597422
C6 C 1.7766492 2.7089019 3.6681829
N1 N 1.9450304 2.5708837 3.58931948
N2 N 1.949237 2.599934 3.40727249
H1 H 1.8797655 2.5989244 3.7709974
H2 H 1.8921613 2.6845275 3.2345567
H5 H 1.6961284 2.7432603 3.7689186
H6 H 1.7948627 2.6808133 3.783128
N1 N 1.4450304 2.9291163 3.08931948
N2 N 1.449237 3.099934 3.40727249
C7 C 1.6624417 3.8137094 0.49367703
C1 C 1.6061245 3.8921939 0.3507728
C2 C 1.599318 3.8451895 0.645331
C3 C 1.6335333 3.8403242 0.495794727
C4 C 1.6913501 3.7870946 0.491559334
C5 C 1.7820007 3.7540035 0.3402578
C6 C 1.7233508 3.7910981 0.3318171
N1 N 1.5549696 3.9291163 0.41068052
N2 N 1.550763 3.900066 0.59272751
H1 H 1.6202345 3.9010756 0.2290026
H2 H 1.6078387 3.8154725 0.7654433
H5 H 1.8038716 3.7567397 0.2310814
H6 H 1.7051373 3.8191867 0.216872
C7 C 1.8375583 3.6862906 0.50632297
C1 C 1.8938755 3.6078061 0.6492272
C2 C 1.900682 3.6548105 0.354669
C3 C 1.8664667 3.6596758 0.504205273
C4 C 1.8086499 3.7129054 0.508440666
C5 C 1.7179993 3.7459965 0.6597422
C6 C 1.7766492 3.7089019 0.6681829
N1 N 1.9450304 3.5708837 0.58931948
N2 N 1.949237 3.599934 0.40727249
H1 H 1.8797655 3.5989244 0.7709974
H2 H 1.8921613 3.6845275 0.2345567
H5 H 1.6961284 3.7432603 0.7689186
H6 H 1.7948627 3.6808133 0.783128
Co Co 1.5 4.01922(60) 0.25
N1 N 1.4450304 3.9291163 0.08931948
N2 N 1.449237 4.099934 0.40727249
N2 N 1.550763 4.099934 0.09272751
Co Co 1.5 3.98078(60) 0.75
Co Co 2.0 3.51922(60) 0.25
C7 C 1.6624417 3.8137094 1.49367703
C1 C 1.6061245 3.8921939 1.3507728
C2 C 1.599318 3.8451895 1.645331
C3 C 1.6335333 3.8403242 1.495794727
C4 C 1.6913501 3.7870946 1.491559334
C5 C 1.7820007 3.7540035 1.3402578
C6 C 1.7233508 3.7910981 1.3318171
N1 N 1.5549696 3.9291163 1.41068052
N2 N 1.550763 3.900066 1.59272751
H1 H 1.6202345 3.9010756 1.2290026
H2 H 1.6078387 3.8154725 1.7654433
H5 H 1.8038716 3.7567397 1.2310814
H6 H 1.7051373 3.8191867 1.216872
C7 C 1.8375583 3.6862906 1.50632297
C1 C 1.8938755 3.6078061 1.6492272
C2 C 1.900682 3.6548105 1.354669
C3 C 1.8664667 3.6596758 1.504205273
C4 C 1.8086499 3.7129054 1.508440666
C5 C 1.7179993 3.7459965 1.6597422
C6 C 1.7766492 3.7089019 1.6681829
N1 N 1.9450304 3.5708837 1.58931948
N2 N 1.949237 3.599934 1.40727249
H1 H 1.8797655 3.5989244 1.7709974
H2 H 1.8921613 3.6845275 1.2345567
H5 H 1.6961284 3.7432603 1.7689186
H6 H 1.7948627 3.6808133 1.783128
Co Co 1.5 4.01922(60) 1.25
N1 N 1.4450304 3.9291163 1.08931948
N2 N 1.449237 4.099934 1.40727249
N2 N 1.550763 4.099934 1.09272751
Co Co 1.5 3.98078(60) 1.75
C7 C 1.6624417 3.8137094 2.49367703
C1 C 1.6061245 3.8921939 2.3507728
C2 C 1.599318 3.8451895 2.645331
C3 C 1.6335333 3.8403242 2.495794727
C4 C 1.6913501 3.7870946 2.491559334
C5 C 1.7820007 3.7540035 2.3402578
C6 C 1.7233508 3.7910981 2.3318171
N1 N 1.5549696 3.9291163 2.41068052
N2 N 1.550763 3.900066 2.59272751
H1 H 1.6202345 3.9010756 2.2290026
H2 H 1.6078387 3.8154725 2.7654433
H5 H 1.8038716 3.7567397 2.2310814
H6 H 1.7051373 3.8191867 2.216872
C7 C 1.8375583 3.6862906 2.50632297
C1 C 1.8938755 3.6078061 2.6492272
C2 C 1.900682 3.6548105 2.354669
C3 C 1.8664667 3.6596758 2.504205273
C4 C 1.8086499 3.7129054 2.508440666
C5 C 1.7179993 3.7459965 2.6597422
C6 C 1.7766492 3.7089019 2.6681829
N1 N 1.9450304 3.5708837 2.58931948
N2 N 1.949237 3.599934 2.40727249
H1 H 1.8797655 3.5989244 2.7709974
H2 H 1.8921613 3.6845275 2.2345567
H5 H 1.6961284 3.7432603 2.7689186
H6 H 1.7948627 3.6808133 2.783128
Co Co 1.5 4.01922(60) 2.25
N1 N 1.4450304 3.9291163 2.08931948
N2 N 1.449237 4.099934 2.40727249
N2 N 1.550763 4.099934 2.09272751
Co Co 1.5 3.98078(60) 2.75
C7 C 1.6624417 3.8137094 3.49367703
C1 C 1.6061245 3.8921939 3.3507728
C2 C 1.599318 3.8451895 3.645331
C3 C 1.6335333 3.8403242 3.495794727
C4 C 1.6913501 3.7870946 3.491559334
C5 C 1.7820007 3.7540035 3.3402578
C6 C 1.7233508 3.7910981 3.3318171
N1 N 1.5549696 3.9291163 3.41068052
N2 N 1.550763 3.900066 3.59272751
H1 H 1.6202345 3.9010756 3.2290026
H2 H 1.6078387 3.8154725 3.7654433
H5 H 1.8038716 3.7567397 3.2310814
H6 H 1.7051373 3.8191867 3.216872
C7 C 1.8375583 3.6862906 3.50632297
C1 C 1.8938755 3.6078061 3.6492272
C2 C 1.900682 3.6548105 3.354669
C3 C 1.8664667 3.6596758 3.504205273
C4 C 1.8086499 3.7129054 3.508440666
C5 C 1.7179993 3.7459965 3.6597422
C6 C 1.7766492 3.7089019 3.6681829
N1 N 1.9450304 3.5708837 3.58931948
N2 N 1.949237 3.599934 3.40727249
H1 H 1.8797655 3.5989244 3.7709974
H2 H 1.8921613 3.6845275 3.2345567
H5 H 1.6961284 3.7432603 3.7689186
H6 H 1.7948627 3.6808133 3.783128
Co Co 1.5 4.01922(60) 3.25
N1 N 1.4450304 3.9291163 3.08931948
N2 N 1.449237 4.099934 3.40727249
N2 N 1.550763 4.099934 3.09272751
Co Co 1.5 3.98078(60) 3.75
C7 C 2.6624417 0.8137094 0.49367703
C1 C 2.6061245 0.8921939 0.3507728
C2 C 2.599318 0.8451895 0.645331
C3 C 2.6335333 0.8403242 0.495794727
C4 C 2.6913501 0.7870946 0.491559334
C5 C 2.7820007 0.7540035 0.3402578
C6 C 2.7233508 0.7910981 0.3318171
N1 N 2.5549696 0.9291163 0.41068052
H1 H 2.6202345 0.9010756 0.2290026
H2 H 2.6078387 0.8154725 0.7654433
H5 H 2.8038716 0.7567397 0.2310814
H6 H 2.7051373 0.8191867 0.216872
C7 C 2.8375583 0.6862906 0.50632297
C1 C 2.8938755 0.6078061 0.6492272
C2 C 2.900682 0.6548105 0.354669
C3 C 2.8664667 0.6596758 0.504205273
C4 C 2.8086499 0.7129054 0.508440666
C5 C 2.7179993 0.7459965 0.6597422
C6 C 2.7766492 0.7089019 0.6681829
N1 N 2.9450304 0.5708837 0.58931948
N2 N 2.949237 0.599934 0.40727249
H1 H 2.8797655 0.5989244 0.7709974
H2 H 2.8921613 0.6845275 0.2345567
H5 H 2.6961284 0.7432603 0.7689186
H6 H 2.7948627 0.6808133 0.783128
Co Co 2.5 1.01922(60) 0.25
N1 N 2.4450304 0.9291163 0.08931948
N2 N 2.449237 1.099934 0.40727249
N2 N 2.550763 1.099934 0.09272751
Co Co 3.0 0.51922(60) 0.25
C7 C 2.6624417 0.8137094 1.49367703
C1 C 2.6061245 0.8921939 1.3507728
C2 C 2.599318 0.8451895 1.645331
C3 C 2.6335333 0.8403242 1.495794727
C4 C 2.6913501 0.7870946 1.491559334
C5 C 2.7820007 0.7540035 1.3402578
C6 C 2.7233508 0.7910981 1.3318171
N1 N 2.5549696 0.9291163 1.41068052
H1 H 2.6202345 0.9010756 1.2290026
H2 H 2.6078387 0.8154725 1.7654433
H5 H 2.8038716 0.7567397 1.2310814
H6 H 2.7051373 0.8191867 1.216872
C7 C 2.8375583 0.6862906 1.50632297
C1 C 2.8938755 0.6078061 1.6492272
C2 C 2.900682 0.6548105 1.354669
C3 C 2.8664667 0.6596758 1.504205273
C4 C 2.8086499 0.7129054 1.508440666
C5 C 2.7179993 0.7459965 1.6597422
C6 C 2.7766492 0.7089019 1.6681829
N1 N 2.9450304 0.5708837 1.58931948
N2 N 2.949237 0.599934 1.40727249
H1 H 2.8797655 0.5989244 1.7709974
H2 H 2.8921613 0.6845275 1.2345567
H5 H 2.6961284 0.7432603 1.7689186
H6 H 2.7948627 0.6808133 1.783128
N1 N 2.4450304 0.9291163 1.08931948
N2 N 2.449237 1.099934 1.40727249
C7 C 2.6624417 0.8137094 2.49367703
C1 C 2.6061245 0.8921939 2.3507728
C2 C 2.599318 0.8451895 2.645331
C3 C 2.6335333 0.8403242 2.495794727
C4 C 2.6913501 0.7870946 2.491559334
C5 C 2.7820007 0.7540035 2.3402578
C6 C 2.7233508 0.7910981 2.3318171
N1 N 2.5549696 0.9291163 2.41068052
H1 H 2.6202345 0.9010756 2.2290026
H2 H 2.6078387 0.8154725 2.7654433
H5 H 2.8038716 0.7567397 2.2310814
H6 H 2.7051373 0.8191867 2.216872
C7 C 2.8375583 0.6862906 2.50632297
C1 C 2.8938755 0.6078061 2.6492272
C2 C 2.900682 0.6548105 2.354669
C3 C 2.8664667 0.6596758 2.504205273
C4 C 2.8086499 0.7129054 2.508440666
C5 C 2.7179993 0.7459965 2.6597422
C6 C 2.7766492 0.7089019 2.6681829
N1 N 2.9450304 0.5708837 2.58931948
N2 N 2.949237 0.599934 2.40727249
H1 H 2.8797655 0.5989244 2.7709974
H2 H 2.8921613 0.6845275 2.2345567
H5 H 2.6961284 0.7432603 2.7689186
H6 H 2.7948627 0.6808133 2.783128
N1 N 2.4450304 0.9291163 2.08931948
N2 N 2.449237 1.099934 2.40727249
C7 C 2.6624417 0.8137094 3.49367703
C1 C 2.6061245 0.8921939 3.3507728
C2 C 2.599318 0.8451895 3.645331
C3 C 2.6335333 0.8403242 3.495794727
C4 C 2.6913501 0.7870946 3.491559334
C5 C 2.7820007 0.7540035 3.3402578
C6 C 2.7233508 0.7910981 3.3318171
N1 N 2.5549696 0.9291163 3.41068052
H1 H 2.6202345 0.9010756 3.2290026
H2 H 2.6078387 0.8154725 3.7654433
H5 H 2.8038716 0.7567397 3.2310814
H6 H 2.7051373 0.8191867 3.216872
C7 C 2.8375583 0.6862906 3.50632297
C1 C 2.8938755 0.6078061 3.6492272
C2 C 2.900682 0.6548105 3.354669
C3 C 2.8664667 0.6596758 3.504205273
C4 C 2.8086499 0.7129054 3.508440666
C5 C 2.7179993 0.7459965 3.6597422
C6 C 2.7766492 0.7089019 3.6681829
N1 N 2.9450304 0.5708837 3.58931948
N2 N 2.949237 0.599934 3.40727249
H1 H 2.8797655 0.5989244 3.7709974
H2 H 2.8921613 0.6845275 3.2345567
H5 H 2.6961284 0.7432603 3.7689186
H6 H 2.7948627 0.6808133 3.783128
N1 N 2.4450304 0.9291163 3.08931948
N2 N 2.449237 1.099934 3.40727249
C7 C 2.6624417 1.8137094 0.49367703
C1 C 2.6061245 1.8921939 0.3507728
C2 C 2.599318 1.8451895 0.645331
C3 C 2.6335333 1.8403242 0.495794727
C4 C 2.6913501 1.7870946 0.491559334
C5 C 2.7820007 1.7540035 0.3402578
C6 C 2.7233508 1.7910981 0.3318171
N1 N 2.5549696 1.9291163 0.41068052
H1 H 2.6202345 1.9010756 0.2290026
H2 H 2.6078387 1.8154725 0.7654433
H5 H 2.8038716 1.7567397 0.2310814
H6 H 2.7051373 1.8191867 0.216872
C7 C 2.8375583 1.6862906 0.50632297
C1 C 2.8938755 1.6078061 0.6492272
C2 C 2.900682 1.6548105 0.354669
C3 C 2.8664667 1.6596758 0.504205273
C4 C 2.8086499 1.7129054 0.508440666
C5 C 2.7179993 1.7459965 0.6597422
C6 C 2.7766492 1.7089019 0.6681829
N1 N 2.9450304 1.5708837 0.58931948
N2 N 2.949237 1.599934 0.40727249
H1 H 2.8797655 1.5989244 0.7709974
H2 H 2.8921613 1.6845275 0.2345567
H5 H 2.6961284 1.7432603 0.7689186
H6 H 2.7948627 1.6808133 0.783128
Co Co 2.5 2.01922(60) 0.25
N1 N 2.4450304 1.9291163 0.08931948
N2 N 2.449237 2.099934 0.40727249
N2 N 2.550763 2.099934 0.09272751
Co Co 3.0 1.51922(60) 0.25
C7 C 2.6624417 1.8137094 1.49367703
C1 C 2.6061245 1.8921939 1.3507728
C2 C 2.599318 1.8451895 1.645331
C3 C 2.6335333 1.8403242 1.495794727
C4 C 2.6913501 1.7870946 1.491559334
C5 C 2.7820007 1.7540035 1.3402578
C6 C 2.7233508 1.7910981 1.3318171
N1 N 2.5549696 1.9291163 1.41068052
H1 H 2.6202345 1.9010756 1.2290026
H2 H 2.6078387 1.8154725 1.7654433
H5 H 2.8038716 1.7567397 1.2310814
H6 H 2.7051373 1.8191867 1.216872
C7 C 2.8375583 1.6862906 1.50632297
C1 C 2.8938755 1.6078061 1.6492272
C2 C 2.900682 1.6548105 1.354669
C3 C 2.8664667 1.6596758 1.504205273
C4 C 2.8086499 1.7129054 1.508440666
C5 C 2.7179993 1.7459965 1.6597422
C6 C 2.7766492 1.7089019 1.6681829
N1 N 2.9450304 1.5708837 1.58931948
N2 N 2.949237 1.599934 1.40727249
H1 H 2.8797655 1.5989244 1.7709974
H2 H 2.8921613 1.6845275 1.2345567
H5 H 2.6961284 1.7432603 1.7689186
H6 H 2.7948627 1.6808133 1.783128
N1 N 2.4450304 1.9291163 1.08931948
N2 N 2.449237 2.099934 1.40727249
C7 C 2.6624417 1.8137094 2.49367703
C1 C 2.6061245 1.8921939 2.3507728
C2 C 2.599318 1.8451895 2.645331
C3 C 2.6335333 1.8403242 2.495794727
C4 C 2.6913501 1.7870946 2.491559334
C5 C 2.7820007 1.7540035 2.3402578
C6 C 2.7233508 1.7910981 2.3318171
N1 N 2.5549696 1.9291163 2.41068052
H1 H 2.6202345 1.9010756 2.2290026
H2 H 2.6078387 1.8154725 2.7654433
H5 H 2.8038716 1.7567397 2.2310814
H6 H 2.7051373 1.8191867 2.216872
C7 C 2.8375583 1.6862906 2.50632297
C1 C 2.8938755 1.6078061 2.6492272
C2 C 2.900682 1.6548105 2.354669
C3 C 2.8664667 1.6596758 2.504205273
C4 C 2.8086499 1.7129054 2.508440666
C5 C 2.7179993 1.7459965 2.6597422
C6 C 2.7766492 1.7089019 2.6681829
N1 N 2.9450304 1.5708837 2.58931948
N2 N 2.949237 1.599934 2.40727249
H1 H 2.8797655 1.5989244 2.7709974
H2 H 2.8921613 1.6845275 2.2345567
H5 H 2.6961284 1.7432603 2.7689186
H6 H 2.7948627 1.6808133 2.783128
N1 N 2.4450304 1.9291163 2.08931948
N2 N 2.449237 2.099934 2.40727249
C7 C 2.6624417 1.8137094 3.49367703
C1 C 2.6061245 1.8921939 3.3507728
C2 C 2.599318 1.8451895 3.645331
C3 C 2.6335333 1.8403242 3.495794727
C4 C 2.6913501 1.7870946 3.491559334
C5 C 2.7820007 1.7540035 3.3402578
C6 C 2.7233508 1.7910981 3.3318171
N1 N 2.5549696 1.9291163 3.41068052
H1 H 2.6202345 1.9010756 3.2290026
H2 H 2.6078387 1.8154725 3.7654433
H5 H 2.8038716 1.7567397 3.2310814
H6 H 2.7051373 1.8191867 3.216872
C7 C 2.8375583 1.6862906 3.50632297
C1 C 2.8938755 1.6078061 3.6492272
C2 C 2.900682 1.6548105 3.354669
C3 C 2.8664667 1.6596758 3.504205273
C4 C 2.8086499 1.7129054 3.508440666
C5 C 2.7179993 1.7459965 3.6597422
C6 C 2.7766492 1.7089019 3.6681829
N1 N 2.9450304 1.5708837 3.58931948
N2 N 2.949237 1.599934 3.40727249
H1 H 2.8797655 1.5989244 3.7709974
H2 H 2.8921613 1.6845275 3.2345567
H5 H 2.6961284 1.7432603 3.7689186
H6 H 2.7948627 1.6808133 3.783128
N1 N 2.4450304 1.9291163 3.08931948
N2 N 2.449237 2.099934 3.40727249
C7 C 2.6624417 2.8137094 0.49367703
C1 C 2.6061245 2.8921939 0.3507728
C2 C 2.599318 2.8451895 0.645331
C3 C 2.6335333 2.8403242 0.495794727
C4 C 2.6913501 2.7870946 0.491559334
C5 C 2.7820007 2.7540035 0.3402578
C6 C 2.7233508 2.7910981 0.3318171
N1 N 2.5549696 2.9291163 0.41068052
H1 H 2.6202345 2.9010756 0.2290026
H2 H 2.6078387 2.8154725 0.7654433
H5 H 2.8038716 2.7567397 0.2310814
H6 H 2.7051373 2.8191867 0.216872
C7 C 2.8375583 2.6862906 0.50632297
C1 C 2.8938755 2.6078061 0.6492272
C2 C 2.900682 2.6548105 0.354669
C3 C 2.8664667 2.6596758 0.504205273
C4 C 2.8086499 2.7129054 0.508440666
C5 C 2.7179993 2.7459965 0.6597422
C6 C 2.7766492 2.7089019 0.6681829
N1 N 2.9450304 2.5708837 0.58931948
N2 N 2.949237 2.599934 0.40727249
H1 H 2.8797655 2.5989244 0.7709974
H2 H 2.8921613 2.6845275 0.2345567
H5 H 2.6961284 2.7432603 0.7689186
H6 H 2.7948627 2.6808133 0.783128
Co Co 2.5 3.01922(60) 0.25
N1 N 2.4450304 2.9291163 0.08931948
N2 N 2.449237 3.099934 0.40727249
N2 N 2.550763 3.099934 0.09272751
Co Co 3.0 2.51922(60) 0.25
C7 C 2.6624417 2.8137094 1.49367703
C1 C 2.6061245 2.8921939 1.3507728
C2 C 2.599318 2.8451895 1.645331
C3 C 2.6335333 2.8403242 1.495794727
C4 C 2.6913501 2.7870946 1.491559334
C5 C 2.7820007 2.7540035 1.3402578
C6 C 2.7233508 2.7910981 1.3318171
N1 N 2.5549696 2.9291163 1.41068052
H1 H 2.6202345 2.9010756 1.2290026
H2 H 2.6078387 2.8154725 1.7654433
H5 H 2.8038716 2.7567397 1.2310814
H6 H 2.7051373 2.8191867 1.216872
C7 C 2.8375583 2.6862906 1.50632297
C1 C 2.8938755 2.6078061 1.6492272
C2 C 2.900682 2.6548105 1.354669
C3 C 2.8664667 2.6596758 1.504205273
C4 C 2.8086499 2.7129054 1.508440666
C5 C 2.7179993 2.7459965 1.6597422
C6 C 2.7766492 2.7089019 1.6681829
N1 N 2.9450304 2.5708837 1.58931948
N2 N 2.949237 2.599934 1.40727249
H1 H 2.8797655 2.5989244 1.7709974
H2 H 2.8921613 2.6845275 1.2345567
H5 H 2.6961284 2.7432603 1.7689186
H6 H 2.7948627 2.6808133 1.783128
N1 N 2.4450304 2.9291163 1.08931948
N2 N 2.449237 3.099934 1.40727249
C7 C 2.6624417 2.8137094 2.49367703
C1 C 2.6061245 2.8921939 2.3507728
C2 C 2.599318 2.8451895 2.645331
C3 C 2.6335333 2.8403242 2.495794727
C4 C 2.6913501 2.7870946 2.491559334
C5 C 2.7820007 2.7540035 2.3402578
C6 C 2.7233508 2.7910981 2.3318171
N1 N 2.5549696 2.9291163 2.41068052
H1 H 2.6202345 2.9010756 2.2290026
H2 H 2.6078387 2.8154725 2.7654433
H5 H 2.8038716 2.7567397 2.2310814
H6 H 2.7051373 2.8191867 2.216872
C7 C 2.8375583 2.6862906 2.50632297
C1 C 2.8938755 2.6078061 2.6492272
C2 C 2.900682 2.6548105 2.354669
C3 C 2.8664667 2.6596758 2.504205273
C4 C 2.8086499 2.7129054 2.508440666
C5 C 2.7179993 2.7459965 2.6597422
C6 C 2.7766492 2.7089019 2.6681829
N1 N 2.9450304 2.5708837 2.58931948
N2 N 2.949237 2.599934 2.40727249
H1 H 2.8797655 2.5989244 2.7709974
H2 H 2.8921613 2.6845275 2.2345567
H5 H 2.6961284 2.7432603 2.7689186
H6 H 2.7948627 2.6808133 2.783128
N1 N 2.4450304 2.9291163 2.08931948
N2 N 2.449237 3.099934 2.40727249
C7 C 2.6624417 2.8137094 3.49367703
C1 C 2.6061245 2.8921939 3.3507728
C2 C 2.599318 2.8451895 3.645331
C3 C 2.6335333 2.8403242 3.495794727
C4 C 2.6913501 2.7870946 3.491559334
C5 C 2.7820007 2.7540035 3.3402578
C6 C 2.7233508 2.7910981 3.3318171
N1 N 2.5549696 2.9291163 3.41068052
H1 H 2.6202345 2.9010756 3.2290026
H2 H 2.6078387 2.8154725 3.7654433
H5 H 2.8038716 2.7567397 3.2310814
H6 H 2.7051373 2.8191867 3.216872
C7 C 2.8375583 2.6862906 3.50632297
C1 C 2.8938755 2.6078061 3.6492272
C2 C 2.900682 2.6548105 3.354669
C3 C 2.8664667 2.6596758 3.504205273
C4 C 2.8086499 2.7129054 3.508440666
C5 C 2.7179993 2.7459965 3.6597422
C6 C 2.7766492 2.7089019 3.6681829
N1 N 2.9450304 2.5708837 3.58931948
N2 N 2.949237 2.599934 3.40727249
H1 H 2.8797655 2.5989244 3.7709974
H2 H 2.8921613 2.6845275 3.2345567
H5 H 2.6961284 2.7432603 3.7689186
H6 H 2.7948627 2.6808133 3.783128
N1 N 2.4450304 2.9291163 3.08931948
N2 N 2.449237 3.099934 3.40727249
C7 C 2.6624417 3.8137094 0.49367703
C1 C 2.6061245 3.8921939 0.3507728
C2 C 2.599318 3.8451895 0.645331
C3 C 2.6335333 3.8403242 0.495794727
C4 C 2.6913501 3.7870946 0.491559334
C5 C 2.7820007 3.7540035 0.3402578
C6 C 2.7233508 3.7910981 0.3318171
N1 N 2.5549696 3.9291163 0.41068052
N2 N 2.550763 3.900066 0.59272751
H1 H 2.6202345 3.9010756 0.2290026
H2 H 2.6078387 3.8154725 0.7654433
H5 H 2.8038716 3.7567397 0.2310814
H6 H 2.7051373 3.8191867 0.216872
C7 C 2.8375583 3.6862906 0.50632297
C1 C 2.8938755 3.6078061 0.6492272
C2 C 2.900682 3.6548105 0.354669
C3 C 2.8664667 3.6596758 0.504205273
C4 C 2.8086499 3.7129054 0.508440666
C5 C 2.7179993 3.7459965 0.6597422
C6 C 2.7766492 3.7089019 0.6681829
N1 N 2.9450304 3.5708837 0.58931948
N2 N 2.949237 3.599934 0.40727249
H1 H 2.8797655 3.5989244 0.7709974
H2 H 2.8921613 3.6845275 0.2345567
H5 H 2.6961284 3.7432603 0.7689186
H6 H 2.7948627 3.6808133 0.783128
Co Co 2.5 4.01922(60) 0.25
N1 N 2.4450304 3.9291163 0.08931948
N2 N 2.449237 4.099934 0.40727249
N2 N 2.550763 4.099934 0.09272751
Co Co 2.5 3.98078(60) 0.75
Co Co 3.0 3.51922(60) 0.25
C7 C 2.6624417 3.8137094 1.49367703
C1 C 2.6061245 3.8921939 1.3507728
C2 C 2.599318 3.8451895 1.645331
C3 C 2.6335333 3.8403242 1.495794727
C4 C 2.6913501 3.7870946 1.491559334
C5 C 2.7820007 3.7540035 1.3402578
C6 C 2.7233508 3.7910981 1.3318171
N1 N 2.5549696 3.9291163 1.41068052
N2 N 2.550763 3.900066 1.59272751
H1 H 2.6202345 3.9010756 1.2290026
H2 H 2.6078387 3.8154725 1.7654433
H5 H 2.8038716 3.7567397 1.2310814
H6 H 2.7051373 3.8191867 1.216872
C7 C 2.8375583 3.6862906 1.50632297
C1 C 2.8938755 3.6078061 1.6492272
C2 C 2.900682 3.6548105 1.354669
C3 C 2.8664667 3.6596758 1.504205273
C4 C 2.8086499 3.7129054 1.508440666
C5 C 2.7179993 3.7459965 1.6597422
C6 C 2.7766492 3.7089019 1.6681829
N1 N 2.9450304 3.5708837 1.58931948
N2 N 2.949237 3.599934 1.40727249
H1 H 2.8797655 3.5989244 1.7709974
H2 H 2.8921613 3.6845275 1.2345567
H5 H 2.6961284 3.7432603 1.7689186
H6 H 2.7948627 3.6808133 1.783128
Co Co 2.5 4.01922(60) 1.25
N1 N 2.4450304 3.9291163 1.08931948
N2 N 2.449237 4.099934 1.40727249
N2 N 2.550763 4.099934 1.09272751
Co Co 2.5 3.98078(60) 1.75
C7 C 2.6624417 3.8137094 2.49367703
C1 C 2.6061245 3.8921939 2.3507728
C2 C 2.599318 3.8451895 2.645331
C3 C 2.6335333 3.8403242 2.495794727
C4 C 2.6913501 3.7870946 2.491559334
C5 C 2.7820007 3.7540035 2.3402578
C6 C 2.7233508 3.7910981 2.3318171
N1 N 2.5549696 3.9291163 2.41068052
N2 N 2.550763 3.900066 2.59272751
H1 H 2.6202345 3.9010756 2.2290026
H2 H 2.6078387 3.8154725 2.7654433
H5 H 2.8038716 3.7567397 2.2310814
H6 H 2.7051373 3.8191867 2.216872
C7 C 2.8375583 3.6862906 2.50632297
C1 C 2.8938755 3.6078061 2.6492272
C2 C 2.900682 3.6548105 2.354669
C3 C 2.8664667 3.6596758 2.504205273
C4 C 2.8086499 3.7129054 2.508440666
C5 C 2.7179993 3.7459965 2.6597422
C6 C 2.7766492 3.7089019 2.6681829
N1 N 2.9450304 3.5708837 2.58931948
N2 N 2.949237 3.599934 2.40727249
H1 H 2.8797655 3.5989244 2.7709974
H2 H 2.8921613 3.6845275 2.2345567
H5 H 2.6961284 3.7432603 2.7689186
H6 H 2.7948627 3.6808133 2.783128
Co Co 2.5 4.01922(60) 2.25
N1 N 2.4450304 3.9291163 2.08931948
N2 N 2.449237 4.099934 2.40727249
N2 N 2.550763 4.099934 2.09272751
Co Co 2.5 3.98078(60) 2.75
C7 C 2.6624417 3.8137094 3.49367703
C1 C 2.6061245 3.8921939 3.3507728
C2 C 2.599318 3.8451895 3.645331
C3 C 2.6335333 3.8403242 3.495794727
C4 C 2.6913501 3.7870946 3.491559334
C5 C 2.7820007 3.7540035 3.3402578
C6 C 2.7233508 3.7910981 3.3318171
N1 N 2.5549696 3.9291163 3.41068052
N2 N 2.550763 3.900066 3.59272751
H1 H 2.6202345 3.9010756 3.2290026
H2 H 2.6078387 3.8154725 3.7654433
H5 H 2.8038716 3.7567397 3.2310814
H6 H 2.7051373 3.8191867 3.216872
C7 C 2.8375583 3.6862906 3.50632297
C1 C 2.8938755 3.6078061 3.6492272
C2 C 2.900682 3.6548105 3.354669
C3 C 2.8664667 3.6596758 3.504205273
C4 C 2.8086499 3.7129054 3.508440666
C5 C 2.7179993 3.7459965 3.6597422
C6 C 2.7766492 3.7089019 3.6681829
N1 N 2.9450304 3.5708837 3.58931948
N2 N 2.949237 3.599934 3.40727249
H1 H 2.8797655 3.5989244 3.7709974
H2 H 2.8921613 3.6845275 3.2345567
H5 H 2.6961284 3.7432603 3.7689186
H6 H 2.7948627 3.6808133 3.783128
Co Co 2.5 4.01922(60) 3.25
N1 N 2.4450304 3.9291163 3.08931948
N2 N 2.449237 4.099934 3.40727249
N2 N 2.550763 4.099934 3.09272751
Co Co 2.5 3.98078(60) 3.75
C7 C 3.6624417 0.8137094 0.49367703
C1 C 3.6061245 0.8921939 0.3507728
C2 C 3.599318 0.8451895 0.645331
C3 C 3.6335333 0.8403242 0.495794727
C4 C 3.6913501 0.7870946 0.491559334
C5 C 3.7820007 0.7540035 0.3402578
C6 C 3.7233508 0.7910981 0.3318171
N1 N 3.5549696 0.9291163 0.41068052
H1 H 3.6202345 0.9010756 0.2290026
H2 H 3.6078387 0.8154725 0.7654433
H5 H 3.8038716 0.7567397 0.2310814
H6 H 3.7051373 0.8191867 0.216872
C7 C 3.8375583 0.6862906 0.50632297
C1 C 3.8938755 0.6078061 0.6492272
C2 C 3.900682 0.6548105 0.354669
C3 C 3.8664667 0.6596758 0.504205273
C4 C 3.8086499 0.7129054 0.508440666
C5 C 3.7179993 0.7459965 0.6597422
C6 C 3.7766492 0.7089019 0.6681829
N1 N 3.9450304 0.5708837 0.58931948
N2 N 3.949237 0.599934 0.40727249
H1 H 3.8797655 0.5989244 0.7709974
H2 H 3.8921613 0.6845275 0.2345567
H5 H 3.6961284 0.7432603 0.7689186
H6 H 3.7948627 0.6808133 0.783128
Co Co 3.5 1.01922(60) 0.25
N1 N 3.4450304 0.9291163 0.08931948
N2 N 3.449237 1.099934 0.40727249
N2 N 3.550763 1.099934 0.09272751
Co Co 4.0 0.51922(60) 0.25
C7 C 3.6624417 0.8137094 1.49367703
C1 C 3.6061245 0.8921939 1.3507728
C2 C 3.599318 0.8451895 1.645331
C3 C 3.6335333 0.8403242 1.495794727
C4 C 3.6913501 0.7870946 1.491559334
C5 C 3.7820007 0.7540035 1.3402578
C6 C 3.7233508 0.7910981 1.3318171
N1 N 3.5549696 0.9291163 1.41068052
H1 H 3.6202345 0.9010756 1.2290026
H2 H 3.6078387 0.8154725 1.7654433
H5 H 3.8038716 0.7567397 1.2310814
H6 H 3.7051373 0.8191867 1.216872
C7 C 3.8375583 0.6862906 1.50632297
C1 C 3.8938755 0.6078061 1.6492272
C2 C 3.900682 0.6548105 1.354669
C3 C 3.8664667 0.6596758 1.504205273
C4 C 3.8086499 0.7129054 1.508440666
C5 C 3.7179993 0.7459965 1.6597422
C6 C 3.7766492 0.7089019 1.6681829
N1 N 3.9450304 0.5708837 1.58931948
N2 N 3.949237 0.599934 1.40727249
H1 H 3.8797655 0.5989244 1.7709974
H2 H 3.8921613 0.6845275 1.2345567
H5 H 3.6961284 0.7432603 1.7689186
H6 H 3.7948627 0.6808133 1.783128
N1 N 3.4450304 0.9291163 1.08931948
N2 N 3.449237 1.099934 1.40727249
C7 C 3.6624417 0.8137094 2.49367703
C1 C 3.6061245 0.8921939 2.3507728
C2 C 3.599318 0.8451895 2.645331
C3 C 3.6335333 0.8403242 2.495794727
C4 C 3.6913501 0.7870946 2.491559334
C5 C 3.7820007 0.7540035 2.3402578
C6 C 3.7233508 0.7910981 2.3318171
N1 N 3.5549696 0.9291163 2.41068052
H1 H 3.6202345 0.9010756 2.2290026
H2 H 3.6078387 0.8154725 2.7654433
H5 H 3.8038716 0.7567397 2.2310814
H6 H 3.7051373 0.8191867 2.216872
C7 C 3.8375583 0.6862906 2.50632297
C1 C 3.8938755 0.6078061 2.6492272
C2 C 3.900682 0.6548105 2.354669
C3 C 3.8664667 0.6596758 2.504205273
C4 C 3.8086499 0.7129054 2.508440666
C5 C 3.7179993 0.7459965 2.6597422
C6 C 3.7766492 0.7089019 2.6681829
N1 N 3.9450304 0.5708837 2.58931948
N2 N 3.949237 0.599934 2.40727249
H1 H 3.8797655 0.5989244 2.7709974
H2 H 3.8921613 0.6845275 2.2345567
H5 H 3.6961284 0.7432603 2.7689186
H6 H 3.7948627 0.6808133 2.783128
N1 N 3.4450304 0.9291163 2.08931948
N2 N 3.449237 1.099934 2.40727249
C7 C 3.6624417 0.8137094 3.49367703
C1 C 3.6061245 0.8921939 3.3507728
C2 C 3.599318 0.8451895 3.645331
C3 C 3.6335333 0.8403242 3.495794727
C4 C 3.6913501 0.7870946 3.491559334
C5 C 3.7820007 0.7540035 3.3402578
C6 C 3.7233508 0.7910981 3.3318171
N1 N 3.5549696 0.9291163 3.41068052
H1 H 3.6202345 0.9010756 3.2290026
H2 H 3.6078387 0.8154725 3.7654433
H5 H 3.8038716 0.7567397 3.2310814
H6 H 3.7051373 0.8191867 3.216872
C7 C 3.8375583 0.6862906 3.50632297
C1 C 3.8938755 0.6078061 3.6492272
C2 C 3.900682 0.6548105 3.354669
C3 C 3.8664667 0.6596758 3.504205273
C4 C 3.8086499 0.7129054 3.508440666
C5 C 3.7179993 0.7459965 3.6597422
C6 C 3.7766492 0.7089019 3.6681829
N1 N 3.9450304 0.5708837 3.58931948
N2 N 3.949237 0.599934 3.40727249
H1 H 3.8797655 0.5989244 3.7709974
H2 H 3.8921613 0.6845275 3.2345567
H5 H 3.6961284 0.7432603 3.7689186
H6 H 3.7948627 0.6808133 3.783128
N1 N 3.4450304 0.9291163 3.08931948
N2 N 3.449237 1.099934 3.40727249
C7 C 3.6624417 1.8137094 0.49367703
C1 C 3.6061245 1.8921939 0.3507728
C2 C 3.599318 1.8451895 0.645331
C3 C 3.6335333 1.8403242 0.495794727
C4 C 3.6913501 1.7870946 0.491559334
C5 C 3.7820007 1.7540035 0.3402578
C6 C 3.7233508 1.7910981 0.3318171
N1 N 3.5549696 1.9291163 0.41068052
H1 H 3.6202345 1.9010756 0.2290026
H2 H 3.6078387 1.8154725 0.7654433
H5 H 3.8038716 1.7567397 0.2310814
H6 H 3.7051373 1.8191867 0.216872
C7 C 3.8375583 1.6862906 0.50632297
C1 C 3.8938755 1.6078061 0.6492272
C2 C 3.900682 1.6548105 0.354669
C3 C 3.8664667 1.6596758 0.504205273
C4 C 3.8086499 1.7129054 0.508440666
C5 C 3.7179993 1.7459965 0.6597422
C6 C 3.7766492 1.7089019 0.6681829
N1 N 3.9450304 1.5708837 0.58931948
N2 N 3.949237 1.599934 0.40727249
H1 H 3.8797655 1.5989244 0.7709974
H2 H 3.8921613 1.6845275 0.2345567
H5 H 3.6961284 1.7432603 0.7689186
H6 H 3.7948627 1.6808133 0.783128
Co Co 3.5 2.01922(60) 0.25
N1 N 3.4450304 1.9291163 0.08931948
N2 N 3.449237 2.099934 0.40727249
N2 N 3.550763 2.099934 0.09272751
Co Co 4.0 1.51922(60) 0.25
C7 C 3.6624417 1.8137094 1.49367703
C1 C 3.6061245 1.8921939 1.3507728
C2 C 3.599318 1.8451895 1.645331
C3 C 3.6335333 1.8403242 1.495794727
C4 C 3.6913501 1.7870946 1.491559334
C5 C 3.7820007 1.7540035 1.3402578
C6 C 3.7233508 1.7910981 1.3318171
N1 N 3.5549696 1.9291163 1.41068052
H1 H 3.6202345 1.9010756 1.2290026
H2 H 3.6078387 1.8154725 1.7654433
H5 H 3.8038716 1.7567397 1.2310814
H6 H 3.7051373 1.8191867 1.216872
C7 C 3.8375583 1.6862906 1.50632297
C1 C 3.8938755 1.6078061 1.6492272
C2 C 3.900682 1.6548105 1.354669
C3 C 3.8664667 1.6596758 1.504205273
C4 C 3.8086499 1.7129054 1.508440666
C5 C 3.7179993 1.7459965 1.6597422
C6 C 3.7766492 1.7089019 1.6681829
N1 N 3.9450304 1.5708837 1.58931948
N2 N 3.949237 1.599934 1.40727249
H1 H 3.8797655 1.5989244 1.7709974
H2 H 3.8921613 1.6845275 1.2345567
H5 H 3.6961284 1.7432603 1.7689186
H6 H 3.7948627 1.6808133 1.783128
N1 N 3.4450304 1.9291163 1.08931948
N2 N 3.449237 2.099934 1.40727249
C7 C 3.6624417 1.8137094 2.49367703
C1 C 3.6061245 1.8921939 2.3507728
C2 C 3.599318 1.8451895 2.645331
C3 C 3.6335333 1.8403242 2.495794727
C4 C 3.6913501 1.7870946 2.491559334
C5 C 3.7820007 1.7540035 2.3402578
C6 C 3.7233508 1.7910981 2.3318171
N1 N 3.5549696 1.9291163 2.41068052
H1 H 3.6202345 1.9010756 2.2290026
H2 H 3.6078387 1.8154725 2.7654433
H5 H 3.8038716 1.7567397 2.2310814
H6 H 3.7051373 1.8191867 2.216872
C7 C 3.8375583 1.6862906 2.50632297
C1 C 3.8938755 1.6078061 2.6492272
C2 C 3.900682 1.6548105 2.354669
C3 C 3.8664667 1.6596758 2.504205273
C4 C 3.8086499 1.7129054 2.508440666
C5 C 3.7179993 1.7459965 2.6597422
C6 C 3.7766492 1.7089019 2.6681829
N1 N 3.9450304 1.5708837 2.58931948
N2 N 3.949237 1.599934 2.40727249
H1 H 3.8797655 1.5989244 2.7709974
H2 H 3.8921613 1.6845275 2.2345567
H5 H 3.6961284 1.7432603 2.7689186
H6 H 3.7948627 1.6808133 2.783128
N1 N 3.4450304 1.9291163 2.08931948
N2 N 3.449237 2.099934 2.40727249
C7 C 3.6624417 1.8137094 3.49367703
C1 C 3.6061245 1.8921939 3.3507728
C2 C 3.599318 1.8451895 3.645331
C3 C 3.6335333 1.8403242 3.495794727
C4 C 3.6913501 1.7870946 3.491559334
C5 C 3.7820007 1.7540035 3.3402578
C6 C 3.7233508 1.7910981 3.3318171
N1 N 3.5549696 1.9291163 3.41068052
H1 H 3.6202345 1.9010756 3.2290026
H2 H 3.6078387 1.8154725 3.7654433
H5 H 3.8038716 1.7567397 3.2310814
H6 H 3.7051373 1.8191867 3.216872
C7 C 3.8375583 1.6862906 3.50632297
C1 C 3.8938755 1.6078061 3.6492272
C2 C 3.900682 1.6548105 3.354669
C3 C 3.8664667 1.6596758 3.504205273
C4 C 3.8086499 1.7129054 3.508440666
C5 C 3.7179993 1.7459965 3.6597422
C6 C 3.7766492 1.7089019 3.6681829
N1 N 3.9450304 1.5708837 3.58931948
N2 N 3.949237 1.599934 3.40727249
H1 H 3.8797655 1.5989244 3.7709974
H2 H 3.8921613 1.6845275 3.2345567
H5 H 3.6961284 1.7432603 3.7689186
H6 H 3.7948627 1.6808133 3.783128
N1 N 3.4450304 1.9291163 3.08931948
N2 N 3.449237 2.099934 3.40727249
C7 C 3.6624417 2.8137094 0.49367703
C1 C 3.6061245 2.8921939 0.3507728
C2 C 3.599318 2.8451895 0.645331
C3 C 3.6335333 2.8403242 0.495794727
C4 C 3.6913501 2.7870946 0.491559334
C5 C 3.7820007 2.7540035 0.3402578
C6 C 3.7233508 2.7910981 0.3318171
N1 N 3.5549696 2.9291163 0.41068052
H1 H 3.6202345 2.9010756 0.2290026
H2 H 3.6078387 2.8154725 0.7654433
H5 H 3.8038716 2.7567397 0.2310814
H6 H 3.7051373 2.8191867 0.216872
C7 C 3.8375583 2.6862906 0.50632297
C1 C 3.8938755 2.6078061 0.6492272
C2 C 3.900682 2.6548105 0.354669
C3 C 3.8664667 2.6596758 0.504205273
C4 C 3.8086499 2.7129054 0.508440666
C5 C 3.7179993 2.7459965 0.6597422
C6 C 3.7766492 2.7089019 0.6681829
N1 N 3.9450304 2.5708837 0.58931948
N2 N 3.949237 2.599934 0.40727249
H1 H 3.8797655 2.5989244 0.7709974
H2 H 3.8921613 2.6845275 0.2345567
H5 H 3.6961284 2.7432603 0.7689186
H6 H 3.7948627 2.6808133 0.783128
Co Co 3.5 3.01922(60) 0.25
N1 N 3.4450304 2.9291163 0.08931948
N2 N 3.449237 3.099934 0.40727249
N2 N 3.550763 3.099934 0.09272751
Co Co 4.0 2.51922(60) 0.25
C7 C 3.6624417 2.8137094 1.49367703
C1 C 3.6061245 2.8921939 1.3507728
C2 C 3.599318 2.8451895 1.645331
C3 C 3.6335333 2.8403242 1.495794727
C4 C 3.6913501 2.7870946 1.491559334
C5 C 3.7820007 2.7540035 1.3402578
C6 C 3.7233508 2.7910981 1.3318171
N1 N 3.5549696 2.9291163 1.41068052
H1 H 3.6202345 2.9010756 1.2290026
H2 H 3.6078387 2.8154725 1.7654433
H5 H 3.8038716 2.7567397 1.2310814
H6 H 3.7051373 2.8191867 1.216872
C7 C 3.8375583 2.6862906 1.50632297
C1 C 3.8938755 2.6078061 1.6492272
C2 C 3.900682 2.6548105 1.354669
C3 C 3.8664667 2.6596758 1.504205273
C4 C 3.8086499 2.7129054 1.508440666
C5 C 3.7179993 2.7459965 1.6597422
C6 C 3.7766492 2.7089019 1.6681829
N1 N 3.9450304 2.5708837 1.58931948
N2 N 3.949237 2.599934 1.40727249
H1 H 3.8797655 2.5989244 1.7709974
H2 H 3.8921613 2.6845275 1.2345567
H5 H 3.6961284 2.7432603 1.7689186
H6 H 3.7948627 2.6808133 1.783128
N1 N 3.4450304 2.9291163 1.08931948
N2 N 3.449237 3.099934 1.40727249
C7 C 3.6624417 2.8137094 2.49367703
C1 C 3.6061245 2.8921939 2.3507728
C2 C 3.599318 2.8451895 2.645331
C3 C 3.6335333 2.8403242 2.495794727
C4 C 3.6913501 2.7870946 2.491559334
C5 C 3.7820007 2.7540035 2.3402578
C6 C 3.7233508 2.7910981 2.3318171
N1 N 3.5549696 2.9291163 2.41068052
H1 H 3.6202345 2.9010756 2.2290026
H2 H 3.6078387 2.8154725 2.7654433
H5 H 3.8038716 2.7567397 2.2310814
H6 H 3.7051373 2.8191867 2.216872
C7 C 3.8375583 2.6862906 2.50632297
C1 C 3.8938755 2.6078061 2.6492272
C2 C 3.900682 2.6548105 2.354669
C3 C 3.8664667 2.6596758 2.504205273
C4 C 3.8086499 2.7129054 2.508440666
C5 C 3.7179993 2.7459965 2.6597422
C6 C 3.7766492 2.7089019 2.6681829
N1 N 3.9450304 2.5708837 2.58931948
N2 N 3.949237 2.599934 2.40727249
H1 H 3.8797655 2.5989244 2.7709974
H2 H 3.8921613 2.6845275 2.2345567
H5 H 3.6961284 2.7432603 2.7689186
H6 H 3.7948627 2.6808133 2.783128
N1 N 3.4450304 2.9291163 2.08931948
N2 N 3.449237 3.099934 2.40727249
C7 C 3.6624417 2.8137094 3.49367703
C1 C 3.6061245 2.8921939 3.3507728
C2 C 3.599318 2.8451895 3.645331
C3 C 3.6335333 2.8403242 3.495794727
C4 C 3.6913501 2.7870946 3.491559334
C5 C 3.7820007 2.7540035 3.3402578
C6 C 3.7233508 2.7910981 3.3318171
N1 N 3.5549696 2.9291163 3.41068052
H1 H 3.6202345 2.9010756 3.2290026
H2 H 3.6078387 2.8154725 3.7654433
H5 H 3.8038716 2.7567397 3.2310814
H6 H 3.7051373 2.8191867 3.216872
C7 C 3.8375583 2.6862906 3.50632297
C1 C 3.8938755 2.6078061 3.6492272
C2 C 3.900682 2.6548105 3.354669
C3 C 3.8664667 2.6596758 3.504205273
C4 C 3.8086499 2.7129054 3.508440666
C5 C 3.7179993 2.7459965 3.6597422
C6 C 3.7766492 2.7089019 3.6681829
N1 N 3.9450304 2.5708837 3.58931948
N2 N 3.949237 2.599934 3.40727249
H1 H 3.8797655 2.5989244 3.7709974
H2 H 3.8921613 2.6845275 3.2345567
H5 H 3.6961284 2.7432603 3.7689186
H6 H 3.7948627 2.6808133 3.783128
N1 N 3.4450304 2.9291163 3.08931948
N2 N 3.449237 3.099934 3.40727249
C7 C 3.6624417 3.8137094 0.49367703
C1 C 3.6061245 3.8921939 0.3507728
C2 C 3.599318 3.8451895 0.645331
C3 C 3.6335333 3.8403242 0.495794727
C4 C 3.6913501 3.7870946 0.491559334
C5 C 3.7820007 3.7540035 0.3402578
C6 C 3.7233508 3.7910981 0.3318171
N1 N 3.5549696 3.9291163 0.41068052
N2 N 3.550763 3.900066 0.59272751
H1 H 3.6202345 3.9010756 0.2290026
H2 H 3.6078387 3.8154725 0.7654433
H5 H 3.8038716 3.7567397 0.2310814
H6 H 3.7051373 3.8191867 0.216872
C7 C 3.8375583 3.6862906 0.50632297
C1 C 3.8938755 3.6078061 0.6492272
C2 C 3.900682 3.6548105 0.354669
C3 C 3.8664667 3.6596758 0.504205273
C4 C 3.8086499 3.7129054 0.508440666
C5 C 3.7179993 3.7459965 0.6597422
C6 C 3.7766492 3.7089019 0.6681829
N1 N 3.9450304 3.5708837 0.58931948
N2 N 3.949237 3.599934 0.40727249
H1 H 3.8797655 3.5989244 0.7709974
H2 H 3.8921613 3.6845275 0.2345567
H5 H 3.6961284 3.7432603 0.7689186
H6 H 3.7948627 3.6808133 0.783128
Co Co 3.5 4.01922(60) 0.25
N1 N 3.4450304 3.9291163 0.08931948
N2 N 3.449237 4.099934 0.40727249
N2 N 3.550763 4.099934 0.09272751
Co Co 3.5 3.98078(60) 0.75
Co Co 4.0 3.51922(60) 0.25
C7 C 3.6624417 3.8137094 1.49367703
C1 C 3.6061245 3.8921939 1.3507728
C2 C 3.599318 3.8451895 1.645331
C3 C 3.6335333 3.8403242 1.495794727
C4 C 3.6913501 3.7870946 1.491559334
C5 C 3.7820007 3.7540035 1.3402578
C6 C 3.7233508 3.7910981 1.3318171
N1 N 3.5549696 3.9291163 1.41068052
N2 N 3.550763 3.900066 1.59272751
H1 H 3.6202345 3.9010756 1.2290026
H2 H 3.6078387 3.8154725 1.7654433
H5 H 3.8038716 3.7567397 1.2310814
H6 H 3.7051373 3.8191867 1.216872
C7 C 3.8375583 3.6862906 1.50632297
C1 C 3.8938755 3.6078061 1.6492272
C2 C 3.900682 3.6548105 1.354669
C3 C 3.8664667 3.6596758 1.504205273
C4 C 3.8086499 3.7129054 1.508440666
C5 C 3.7179993 3.7459965 1.6597422
C6 C 3.7766492 3.7089019 1.6681829
N1 N 3.9450304 3.5708837 1.58931948
N2 N 3.949237 3.599934 1.40727249
H1 H 3.8797655 3.5989244 1.7709974
H2 H 3.8921613 3.6845275 1.2345567
H5 H 3.6961284 3.7432603 1.7689186
H6 H 3.7948627 3.6808133 1.783128
Co Co 3.5 4.01922(60) 1.25
N1 N 3.4450304 3.9291163 1.08931948
N2 N 3.449237 4.099934 1.40727249
N2 N 3.550763 4.099934 1.09272751
Co Co 3.5 3.98078(60) 1.75
C7 C 3.6624417 3.8137094 2.49367703
C1 C 3.6061245 3.8921939 2.3507728
C2 C 3.599318 3.8451895 2.645331
C3 C 3.6335333 3.8403242 2.495794727
C4 C 3.6913501 3.7870946 2.491559334
C5 C 3.7820007 3.7540035 2.3402578
C6 C 3.7233508 3.7910981 2.3318171
N1 N 3.5549696 3.9291163 2.41068052
N2 N 3.550763 3.900066 2.59272751
H1 H 3.6202345 3.9010756 2.2290026
H2 H 3.6078387 3.8154725 2.7654433
H5 H 3.8038716 3.7567397 2.2310814
H6 H 3.7051373 3.8191867 2.216872
C7 C 3.8375583 3.6862906 2.50632297
C1 C 3.8938755 3.6078061 2.6492272
C2 C 3.900682 3.6548105 2.354669
C3 C 3.8664667 3.6596758 2.504205273
C4 C 3.8086499 3.7129054 2.508440666
C5 C 3.7179993 3.7459965 2.6597422
C6 C 3.7766492 3.7089019 2.6681829
N1 N 3.9450304 3.5708837 2.58931948
N2 N 3.949237 3.599934 2.40727249
H1 H 3.8797655 3.5989244 2.7709974
H2 H 3.8921613 3.6845275 2.2345567
H5 H 3.6961284 3.7432603 2.7689186
H6 H 3.7948627 3.6808133 2.783128
Co Co 3.5 4.01922(60) 2.25
N1 N 3.4450304 3.9291163 2.08931948
N2 N 3.449237 4.099934 2.40727249
N2 N 3.550763 4.099934 2.09272751
Co Co 3.5 3.98078(60) 2.75
C7 C 3.6624417 3.8137094 3.49367703
C1 C 3.6061245 3.8921939 3.3507728
C2 C 3.599318 3.8451895 3.645331
C3 C 3.6335333 3.8403242 3.495794727
C4 C 3.6913501 3.7870946 3.491559334
C5 C 3.7820007 3.7540035 3.3402578
C6 C 3.7233508 3.7910981 3.3318171
N1 N 3.5549696 3.9291163 3.41068052
N2 N 3.550763 3.900066 3.59272751
H1 H 3.6202345 3.9010756 3.2290026
H2 H 3.6078387 3.8154725 3.7654433
H5 H 3.8038716 3.7567397 3.2310814
H6 H 3.7051373 3.8191867 3.216872
C7 C 3.8375583 3.6862906 3.50632297
C1 C 3.8938755 3.6078061 3.6492272
C2 C 3.900682 3.6548105 3.354669
C3 C 3.8664667 3.6596758 3.504205273
C4 C 3.8086499 3.7129054 3.508440666
C5 C 3.7179993 3.7459965 3.6597422
C6 C 3.7766492 3.7089019 3.6681829
N1 N 3.9450304 3.5708837 3.58931948
N2 N 3.949237 3.599934 3.40727249
H1 H 3.8797655 3.5989244 3.7709974
H2 H 3.8921613 3.6845275 3.2345567
H5 H 3.6961284 3.7432603 3.7689186
H6 H 3.7948627 3.6808133 3.783128
Co Co 3.5 4.01922(60) 3.25
N1 N 3.4450304 3.9291163 3.08931948
N2 N 3.449237 4.099934 3.40727249
N2 N 3.550763 4.099934 3.09272751
Co Co 3.5 3.98078(60) 3.75
C7 C 0.1624417 0.6862906 0.99367703
C1 C 0.1061245 0.6078061 0.8507728
C2 C 0.099318 0.6548105 1.145331
C3 C 0.1335333 0.6596758 0.995794727
C4 C 0.1913501 0.7129054 0.991559334
C5 C 0.2820007 0.7459965 0.8402578
C6 C 0.2233508 0.7089019 0.8318171
N1 N 0.0549696 0.5708837 0.91068052
N2 N 0.050763 0.599934 1.09272751
H1 H 0.1202345 0.5989244 0.7290026
H2 H 0.1078387 0.6845275 1.2654433
H5 H 0.3038716 0.7432603 0.7310814
H6 H 0.2051373 0.6808133 0.716872
C7 C 0.3375583 0.8137094 1.00632297
C1 C 0.3938755 0.8921939 1.1492272
C2 C 0.400682 0.8451895 0.854669
C3 C 0.3664667 0.8403242 1.004205273
C4 C 0.3086499 0.7870946 1.008440666
C5 C 0.2179993 0.7540035 1.1597422
C6 C 0.2766492 0.7910981 1.1681829
H1 H 0.3797655 0.9010756 1.2709974
H2 H 0.3921613 0.8154725 0.7345567
H5 H 0.1961284 0.7567397 1.2689186
H6 H 0.2948627 0.8191867 1.283128
Co Co 0.0 0.48078(60) 0.75
N1 N -0.0549696 0.5708837 0.58931948
N2 N -0.050763 0.400066 0.90727249
N2 N 0.050763 0.400066 0.59272751
Co Co 0.0 0.51922(60) 1.25
C7 C 0.1624417 0.6862906 1.99367703
C1 C 0.1061245 0.6078061 1.8507728
C2 C 0.099318 0.6548105 2.145331
C3 C 0.1335333 0.6596758 1.995794727
C4 C 0.1913501 0.7129054 1.991559334
C5 C 0.2820007 0.7459965 1.8402578
C6 C 0.2233508 0.7089019 1.8318171
N1 N 0.0549696 0.5708837 1.91068052
N2 N 0.050763 0.599934 2.09272751
H1 H 0.1202345 0.5989244 1.7290026
H2 H 0.1078387 0.6845275 2.2654433
H5 H 0.3038716 0.7432603 1.7310814
H6 H 0.2051373 0.6808133 1.716872
C7 C 0.3375583 0.8137094 2.00632297
C1 C 0.3938755 0.8921939 2.1492272
C2 C 0.400682 0.8451895 1.854669
C3 C 0.3664667 0.8403242 2.004205273
C4 C 0.3086499 0.7870946 2.008440666
C5 C 0.2179993 0.7540035 2.1597422
C6 C 0.2766492 0.7910981 2.1681829
H1 H 0.3797655 0.9010756 2.2709974
H2 H 0.3921613 0.8154725 1.7345567
H5 H 0.1961284 0.7567397 2.2689186
H6 H 0.2948627 0.8191867 2.283128
Co Co 0.0 0.48078(60) 1.75
N1 N -0.0549696 0.5708837 1.58931948
N2 N -0.050763 0.400066 1.90727249
N2 N 0.050763 0.400066 1.59272751
Co Co 0.0 0.51922(60) 2.25
C7 C 0.1624417 0.6862906 2.99367703
C1 C 0.1061245 0.6078061 2.8507728
C2 C 0.099318 0.6548105 3.145331
C3 C 0.1335333 0.6596758 2.995794727
C4 C 0.1913501 0.7129054 2.991559334
C5 C 0.2820007 0.7459965 2.8402578
C6 C 0.2233508 0.7089019 2.8318171
N1 N 0.0549696 0.5708837 2.91068052
N2 N 0.050763 0.599934 3.09272751
H1 H 0.1202345 0.5989244 2.7290026
H2 H 0.1078387 0.6845275 3.2654433
H5 H 0.3038716 0.7432603 2.7310814
H6 H 0.2051373 0.6808133 2.716872
C7 C 0.3375583 0.8137094 3.00632297
C1 C 0.3938755 0.8921939 3.1492272
C2 C 0.400682 0.8451895 2.854669
C3 C 0.3664667 0.8403242 3.004205273
C4 C 0.3086499 0.7870946 3.008440666
C5 C 0.2179993 0.7540035 3.1597422
C6 C 0.2766492 0.7910981 3.1681829
H1 H 0.3797655 0.9010756 3.2709974
H2 H 0.3921613 0.8154725 2.7345567
H5 H 0.1961284 0.7567397 3.2689186
H6 H 0.2948627 0.8191867 3.283128
Co Co 0.0 0.48078(60) 2.75
N1 N -0.0549696 0.5708837 2.58931948
N2 N -0.050763 0.400066 2.90727249
N2 N 0.050763 0.400066 2.59272751
Co Co 0.0 0.51922(60) 3.25
C7 C 0.1624417 0.6862906 3.99367703
C1 C 0.1061245 0.6078061 3.8507728
C2 C 0.099318 0.6548105 4.145331
C3 C 0.1335333 0.6596758 3.995794727
C4 C 0.1913501 0.7129054 3.991559334
C5 C 0.2820007 0.7459965 3.8402578
C6 C 0.2233508 0.7089019 3.8318171
N1 N 0.0549696 0.5708837 3.91068052
N2 N 0.050763 0.599934 4.09272751
H1 H 0.1202345 0.5989244 3.7290026
H2 H 0.1078387 0.6845275 4.2654433
H5 H 0.3038716 0.7432603 3.7310814
H6 H 0.2051373 0.6808133 3.716872
C7 C 0.3375583 0.8137094 4.00632297
C1 C 0.3938755 0.8921939 4.1492272
C2 C 0.400682 0.8451895 3.854669
C3 C 0.3664667 0.8403242 4.004205273
C4 C 0.3086499 0.7870946 4.008440666
C5 C 0.2179993 0.7540035 4.1597422
C6 C 0.2766492 0.7910981 4.1681829
N1 N 0.4450304 0.9291163 4.08931948
H1 H 0.3797655 0.9010756 4.2709974
H2 H 0.3921613 0.8154725 3.7345567
H5 H 0.1961284 0.7567397 4.2689186
H6 H 0.2948627 0.8191867 4.283128
Co Co 0.0 0.48078(60) 3.75
N1 N -0.0549696 0.5708837 3.58931948
N2 N -0.050763 0.400066 3.90727249
N2 N 0.050763 0.400066 3.59272751
Co Co 0.0 0.51922(60) 4.25
C7 C 0.1624417 1.6862906 0.99367703
C1 C 0.1061245 1.6078061 0.8507728
C2 C 0.099318 1.6548105 1.145331
C3 C 0.1335333 1.6596758 0.995794727
C4 C 0.1913501 1.7129054 0.991559334
C5 C 0.2820007 1.7459965 0.8402578
C6 C 0.2233508 1.7089019 0.8318171
N1 N 0.0549696 1.5708837 0.91068052
N2 N 0.050763 1.599934 1.09272751
H1 H 0.1202345 1.5989244 0.7290026
H2 H 0.1078387 1.6845275 1.2654433
H5 H 0.3038716 1.7432603 0.7310814
H6 H 0.2051373 1.6808133 0.716872
C7 C 0.3375583 1.8137094 1.00632297
C1 C 0.3938755 1.8921939 1.1492272
C2 C 0.400682 1.8451895 0.854669
C3 C 0.3664667 1.8403242 1.004205273
C4 C 0.3086499 1.7870946 1.008440666
C5 C 0.2179993 1.7540035 1.1597422
C6 C 0.2766492 1.7910981 1.1681829
H1 H 0.3797655 1.9010756 1.2709974
H2 H 0.3921613 1.8154725 0.7345567
H5 H 0.1961284 1.7567397 1.2689186
H6 H 0.2948627 1.8191867 1.283128
Co Co 0.0 1.48078(60) 0.75
N1 N -0.0549696 1.5708837 0.58931948
N2 N -0.050763 1.400066 0.90727249
N2 N 0.050763 1.400066 0.59272751
Co Co 0.0 1.51922(60) 1.25
C7 C 0.1624417 1.6862906 1.99367703
C1 C 0.1061245 1.6078061 1.8507728
C2 C 0.099318 1.6548105 2.145331
C3 C 0.1335333 1.6596758 1.995794727
C4 C 0.1913501 1.7129054 1.991559334
C5 C 0.2820007 1.7459965 1.8402578
C6 C 0.2233508 1.7089019 1.8318171
N1 N 0.0549696 1.5708837 1.91068052
N2 N 0.050763 1.599934 2.09272751
H1 H 0.1202345 1.5989244 1.7290026
H2 H 0.1078387 1.6845275 2.2654433
H5 H 0.3038716 1.7432603 1.7310814
H6 H 0.2051373 1.6808133 1.716872
C7 C 0.3375583 1.8137094 2.00632297
C1 C 0.3938755 1.8921939 2.1492272
C2 C 0.400682 1.8451895 1.854669
C3 C 0.3664667 1.8403242 2.004205273
C4 C 0.3086499 1.7870946 2.008440666
C5 C 0.2179993 1.7540035 2.1597422
C6 C 0.2766492 1.7910981 2.1681829
H1 H 0.3797655 1.9010756 2.2709974
H2 H 0.3921613 1.8154725 1.7345567
H5 H 0.1961284 1.7567397 2.2689186
H6 H 0.2948627 1.8191867 2.283128
Co Co 0.0 1.48078(60) 1.75
N1 N -0.0549696 1.5708837 1.58931948
N2 N -0.050763 1.400066 1.90727249
N2 N 0.050763 1.400066 1.59272751
Co Co 0.0 1.51922(60) 2.25
C7 C 0.1624417 1.6862906 2.99367703
C1 C 0.1061245 1.6078061 2.8507728
C2 C 0.099318 1.6548105 3.145331
C3 C 0.1335333 1.6596758 2.995794727
C4 C 0.1913501 1.7129054 2.991559334
C5 C 0.2820007 1.7459965 2.8402578
C6 C 0.2233508 1.7089019 2.8318171
N1 N 0.0549696 1.5708837 2.91068052
N2 N 0.050763 1.599934 3.09272751
H1 H 0.1202345 1.5989244 2.7290026
H2 H 0.1078387 1.6845275 3.2654433
H5 H 0.3038716 1.7432603 2.7310814
H6 H 0.2051373 1.6808133 2.716872
C7 C 0.3375583 1.8137094 3.00632297
C1 C 0.3938755 1.8921939 3.1492272
C2 C 0.400682 1.8451895 2.854669
C3 C 0.3664667 1.8403242 3.004205273
C4 C 0.3086499 1.7870946 3.008440666
C5 C 0.2179993 1.7540035 3.1597422
C6 C 0.2766492 1.7910981 3.1681829
H1 H 0.3797655 1.9010756 3.2709974
H2 H 0.3921613 1.8154725 2.7345567
H5 H 0.1961284 1.7567397 3.2689186
H6 H 0.2948627 1.8191867 3.283128
Co Co 0.0 1.48078(60) 2.75
N1 N -0.0549696 1.5708837 2.58931948
N2 N -0.050763 1.400066 2.90727249
N2 N 0.050763 1.400066 2.59272751
Co Co 0.0 1.51922(60) 3.25
C7 C 0.1624417 1.6862906 3.99367703
C1 C 0.1061245 1.6078061 3.8507728
C2 C 0.099318 1.6548105 4.145331
C3 C 0.1335333 1.6596758 3.995794727
C4 C 0.1913501 1.7129054 3.991559334
C5 C 0.2820007 1.7459965 3.8402578
C6 C 0.2233508 1.7089019 3.8318171
N1 N 0.0549696 1.5708837 3.91068052
N2 N 0.050763 1.599934 4.09272751
H1 H 0.1202345 1.5989244 3.7290026
H2 H 0.1078387 1.6845275 4.2654433
H5 H 0.3038716 1.7432603 3.7310814
H6 H 0.2051373 1.6808133 3.716872
C7 C 0.3375583 1.8137094 4.00632297
C1 C 0.3938755 1.8921939 4.1492272
C2 C 0.400682 1.8451895 3.854669
C3 C 0.3664667 1.8403242 4.004205273
C4 C 0.3086499 1.7870946 4.008440666
C5 C 0.2179993 1.7540035 4.1597422
C6 C 0.2766492 1.7910981 4.1681829
N1 N 0.4450304 1.9291163 4.08931948
H1 H 0.3797655 1.9010756 4.2709974
H2 H 0.3921613 1.8154725 3.7345567
H5 H 0.1961284 1.7567397 4.2689186
H6 H 0.2948627 1.8191867 4.283128
Co Co 0.0 1.48078(60) 3.75
N1 N -0.0549696 1.5708837 3.58931948
N2 N -0.050763 1.400066 3.90727249
N2 N 0.050763 1.400066 3.59272751
Co Co 0.0 1.51922(60) 4.25
C7 C 0.1624417 2.6862906 0.99367703
C1 C 0.1061245 2.6078061 0.8507728
C2 C 0.099318 2.6548105 1.145331
C3 C 0.1335333 2.6596758 0.995794727
C4 C 0.1913501 2.7129054 0.991559334
C5 C 0.2820007 2.7459965 0.8402578
C6 C 0.2233508 2.7089019 0.8318171
N1 N 0.0549696 2.5708837 0.91068052
N2 N 0.050763 2.599934 1.09272751
H1 H 0.1202345 2.5989244 0.7290026
H2 H 0.1078387 2.6845275 1.2654433
H5 H 0.3038716 2.7432603 0.7310814
H6 H 0.2051373 2.6808133 0.716872
C7 C 0.3375583 2.8137094 1.00632297
C1 C 0.3938755 2.8921939 1.1492272
C2 C 0.400682 2.8451895 0.854669
C3 C 0.3664667 2.8403242 1.004205273
C4 C 0.3086499 2.7870946 1.008440666
C5 C 0.2179993 2.7540035 1.1597422
C6 C 0.2766492 2.7910981 1.1681829
H1 H 0.3797655 2.9010756 1.2709974
H2 H 0.3921613 2.8154725 0.7345567
H5 H 0.1961284 2.7567397 1.2689186
H6 H 0.2948627 2.8191867 1.283128
Co Co 0.0 2.48078(60) 0.75
N1 N -0.0549696 2.5708837 0.58931948
N2 N -0.050763 2.400066 0.90727249
N2 N 0.050763 2.400066 0.59272751
Co Co 0.0 2.51922(60) 1.25
C7 C 0.1624417 2.6862906 1.99367703
C1 C 0.1061245 2.6078061 1.8507728
C2 C 0.099318 2.6548105 2.145331
C3 C 0.1335333 2.6596758 1.995794727
C4 C 0.1913501 2.7129054 1.991559334
C5 C 0.2820007 2.7459965 1.8402578
C6 C 0.2233508 2.7089019 1.8318171
N1 N 0.0549696 2.5708837 1.91068052
N2 N 0.050763 2.599934 2.09272751
H1 H 0.1202345 2.5989244 1.7290026
H2 H 0.1078387 2.6845275 2.2654433
H5 H 0.3038716 2.7432603 1.7310814
H6 H 0.2051373 2.6808133 1.716872
C7 C 0.3375583 2.8137094 2.00632297
C1 C 0.3938755 2.8921939 2.1492272
C2 C 0.400682 2.8451895 1.854669
C3 C 0.3664667 2.8403242 2.004205273
C4 C 0.3086499 2.7870946 2.008440666
C5 C 0.2179993 2.7540035 2.1597422
C6 C 0.2766492 2.7910981 2.1681829
H1 H 0.3797655 2.9010756 2.2709974
H2 H 0.3921613 2.8154725 1.7345567
H5 H 0.1961284 2.7567397 2.2689186
H6 H 0.2948627 2.8191867 2.283128
Co Co 0.0 2.48078(60) 1.75
N1 N -0.0549696 2.5708837 1.58931948
N2 N -0.050763 2.400066 1.90727249
N2 N 0.050763 2.400066 1.59272751
Co Co 0.0 2.51922(60) 2.25
C7 C 0.1624417 2.6862906 2.99367703
C1 C 0.1061245 2.6078061 2.8507728
C2 C 0.099318 2.6548105 3.145331
C3 C 0.1335333 2.6596758 2.995794727
C4 C 0.1913501 2.7129054 2.991559334
C5 C 0.2820007 2.7459965 2.8402578
C6 C 0.2233508 2.7089019 2.8318171
N1 N 0.0549696 2.5708837 2.91068052
N2 N 0.050763 2.599934 3.09272751
H1 H 0.1202345 2.5989244 2.7290026
H2 H 0.1078387 2.6845275 3.2654433
H5 H 0.3038716 2.7432603 2.7310814
H6 H 0.2051373 2.6808133 2.716872
C7 C 0.3375583 2.8137094 3.00632297
C1 C 0.3938755 2.8921939 3.1492272
C2 C 0.400682 2.8451895 2.854669
C3 C 0.3664667 2.8403242 3.004205273
C4 C 0.3086499 2.7870946 3.008440666
C5 C 0.2179993 2.7540035 3.1597422
C6 C 0.2766492 2.7910981 3.1681829
H1 H 0.3797655 2.9010756 3.2709974
H2 H 0.3921613 2.8154725 2.7345567
H5 H 0.1961284 2.7567397 3.2689186
H6 H 0.2948627 2.8191867 3.283128
Co Co 0.0 2.48078(60) 2.75
N1 N -0.0549696 2.5708837 2.58931948
N2 N -0.050763 2.400066 2.90727249
N2 N 0.050763 2.400066 2.59272751
Co Co 0.0 2.51922(60) 3.25
C7 C 0.1624417 2.6862906 3.99367703
C1 C 0.1061245 2.6078061 3.8507728
C2 C 0.099318 2.6548105 4.145331
C3 C 0.1335333 2.6596758 3.995794727
C4 C 0.1913501 2.7129054 3.991559334
C5 C 0.2820007 2.7459965 3.8402578
C6 C 0.2233508 2.7089019 3.8318171
N1 N 0.0549696 2.5708837 3.91068052
N2 N 0.050763 2.599934 4.09272751
H1 H 0.1202345 2.5989244 3.7290026
H2 H 0.1078387 2.6845275 4.2654433
H5 H 0.3038716 2.7432603 3.7310814
H6 H 0.2051373 2.6808133 3.716872
C7 C 0.3375583 2.8137094 4.00632297
C1 C 0.3938755 2.8921939 4.1492272
C2 C 0.400682 2.8451895 3.854669
C3 C 0.3664667 2.8403242 4.004205273
C4 C 0.3086499 2.7870946 4.008440666
C5 C 0.2179993 2.7540035 4.1597422
C6 C 0.2766492 2.7910981 4.1681829
N1 N 0.4450304 2.9291163 4.08931948
H1 H 0.3797655 2.9010756 4.2709974
H2 H 0.3921613 2.8154725 3.7345567
H5 H 0.1961284 2.7567397 4.2689186
H6 H 0.2948627 2.8191867 4.283128
Co Co 0.0 2.48078(60) 3.75
N1 N -0.0549696 2.5708837 3.58931948
N2 N -0.050763 2.400066 3.90727249
N2 N 0.050763 2.400066 3.59272751
Co Co 0.0 2.51922(60) 4.25
C7 C 0.1624417 3.6862906 0.99367703
C1 C 0.1061245 3.6078061 0.8507728
C2 C 0.099318 3.6548105 1.145331
C3 C 0.1335333 3.6596758 0.995794727
C4 C 0.1913501 3.7129054 0.991559334
C5 C 0.2820007 3.7459965 0.8402578
C6 C 0.2233508 3.7089019 0.8318171
N1 N 0.0549696 3.5708837 0.91068052
N2 N 0.050763 3.599934 1.09272751
H1 H 0.1202345 3.5989244 0.7290026
H2 H 0.1078387 3.6845275 1.2654433
H5 H 0.3038716 3.7432603 0.7310814
H6 H 0.2051373 3.6808133 0.716872
C7 C 0.3375583 3.8137094 1.00632297
C1 C 0.3938755 3.8921939 1.1492272
C2 C 0.400682 3.8451895 0.854669
C3 C 0.3664667 3.8403242 1.004205273
C4 C 0.3086499 3.7870946 1.008440666
C5 C 0.2179993 3.7540035 1.1597422
C6 C 0.2766492 3.7910981 1.1681829
N2 N 0.449237 3.900066 0.90727249
H1 H 0.3797655 3.9010756 1.2709974
H2 H 0.3921613 3.8154725 0.7345567
H5 H 0.1961284 3.7567397 1.2689186
H6 H 0.2948627 3.8191867 1.283128
Co Co 0.0 3.48078(60) 0.75
N1 N -0.0549696 3.5708837 0.58931948
N2 N -0.050763 3.400066 0.90727249
N2 N 0.050763 3.400066 0.59272751
Co Co 0.0 3.51922(60) 1.25
C7 C 0.1624417 3.6862906 1.99367703
C1 C 0.1061245 3.6078061 1.8507728
C2 C 0.099318 3.6548105 2.145331
C3 C 0.1335333 3.6596758 1.995794727
C4 C 0.1913501 3.7129054 1.991559334
C5 C 0.2820007 3.7459965 1.8402578
C6 C 0.2233508 3.7089019 1.8318171
N1 N 0.0549696 3.5708837 1.91068052
N2 N 0.050763 3.599934 2.09272751
H1 H 0.1202345 3.5989244 1.7290026
H2 H 0.1078387 3.6845275 2.2654433
H5 H 0.3038716 3.7432603 1.7310814
H6 H 0.2051373 3.6808133 1.716872
C7 C 0.3375583 3.8137094 2.00632297
C1 C 0.3938755 3.8921939 2.1492272
C2 C 0.400682 3.8451895 1.854669
C3 C 0.3664667 3.8403242 2.004205273
C4 C 0.3086499 3.7870946 2.008440666
C5 C 0.2179993 3.7540035 2.1597422
C6 C 0.2766492 3.7910981 2.1681829
N2 N 0.449237 3.900066 1.90727249
H1 H 0.3797655 3.9010756 2.2709974
H2 H 0.3921613 3.8154725 1.7345567
H5 H 0.1961284 3.7567397 2.2689186
H6 H 0.2948627 3.8191867 2.283128
Co Co 0.0 3.48078(60) 1.75
N1 N -0.0549696 3.5708837 1.58931948
N2 N -0.050763 3.400066 1.90727249
N2 N 0.050763 3.400066 1.59272751
Co Co 0.0 3.51922(60) 2.25
C7 C 0.1624417 3.6862906 2.99367703
C1 C 0.1061245 3.6078061 2.8507728
C2 C 0.099318 3.6548105 3.145331
C3 C 0.1335333 3.6596758 2.995794727
C4 C 0.1913501 3.7129054 2.991559334
C5 C 0.2820007 3.7459965 2.8402578
C6 C 0.2233508 3.7089019 2.8318171
N1 N 0.0549696 3.5708837 2.91068052
N2 N 0.050763 3.599934 3.09272751
H1 H 0.1202345 3.5989244 2.7290026
H2 H 0.1078387 3.6845275 3.2654433
H5 H 0.3038716 3.7432603 2.7310814
H6 H 0.2051373 3.6808133 2.716872
C7 C 0.3375583 3.8137094 3.00632297
C1 C 0.3938755 3.8921939 3.1492272
C2 C 0.400682 3.8451895 2.854669
C3 C 0.3664667 3.8403242 3.004205273
C4 C 0.3086499 3.7870946 3.008440666
C5 C 0.2179993 3.7540035 3.1597422
C6 C 0.2766492 3.7910981 3.1681829
N2 N 0.449237 3.900066 2.90727249
H1 H 0.3797655 3.9010756 3.2709974
H2 H 0.3921613 3.8154725 2.7345567
H5 H 0.1961284 3.7567397 3.2689186
H6 H 0.2948627 3.8191867 3.283128
Co Co 0.0 3.48078(60) 2.75
N1 N -0.0549696 3.5708837 2.58931948
N2 N -0.050763 3.400066 2.90727249
N2 N 0.050763 3.400066 2.59272751
Co Co 0.0 3.51922(60) 3.25
C7 C 0.1624417 3.6862906 3.99367703
C1 C 0.1061245 3.6078061 3.8507728
C2 C 0.099318 3.6548105 4.145331
C3 C 0.1335333 3.6596758 3.995794727
C4 C 0.1913501 3.7129054 3.991559334
C5 C 0.2820007 3.7459965 3.8402578
C6 C 0.2233508 3.7089019 3.8318171
N1 N 0.0549696 3.5708837 3.91068052
N2 N 0.050763 3.599934 4.09272751
H1 H 0.1202345 3.5989244 3.7290026
H2 H 0.1078387 3.6845275 4.2654433
H5 H 0.3038716 3.7432603 3.7310814
H6 H 0.2051373 3.6808133 3.716872
C7 C 0.3375583 3.8137094 4.00632297
C1 C 0.3938755 3.8921939 4.1492272
C2 C 0.400682 3.8451895 3.854669
C3 C 0.3664667 3.8403242 4.004205273
C4 C 0.3086499 3.7870946 4.008440666
C5 C 0.2179993 3.7540035 4.1597422
C6 C 0.2766492 3.7910981 4.1681829
N1 N 0.4450304 3.9291163 4.08931948
N2 N 0.449237 3.900066 3.90727249
H1 H 0.3797655 3.9010756 4.2709974
H2 H 0.3921613 3.8154725 3.7345567
H5 H 0.1961284 3.7567397 4.2689186
H6 H 0.2948627 3.8191867 4.283128
Co Co 0.0 3.48078(60) 3.75
N1 N -0.0549696 3.5708837 3.58931948
N2 N -0.050763 3.400066 3.90727249
N2 N 0.050763 3.400066 3.59272751
Co Co 0.0 3.51922(60) 4.25
Co Co 0.5 4.01922(60) 4.25
C7 C 1.1624417 0.6862906 0.99367703
C1 C 1.1061245 0.6078061 0.8507728
C2 C 1.099318 0.6548105 1.145331
C3 C 1.1335333 0.6596758 0.995794727
C4 C 1.1913501 0.7129054 0.991559334
C5 C 1.2820007 0.7459965 0.8402578
C6 C 1.2233508 0.7089019 0.8318171
N1 N 1.0549696 0.5708837 0.91068052
N2 N 1.050763 0.599934 1.09272751
H1 H 1.1202345 0.5989244 0.7290026
H2 H 1.1078387 0.6845275 1.2654433
H5 H 1.3038716 0.7432603 0.7310814
H6 H 1.2051373 0.6808133 0.716872
C7 C 1.3375583 0.8137094 1.00632297
C1 C 1.3938755 0.8921939 1.1492272
C2 C 1.400682 0.8451895 0.854669
C3 C 1.3664667 0.8403242 1.004205273
C4 C 1.3086499 0.7870946 1.008440666
C5 C 1.2179993 0.7540035 1.1597422
C6 C 1.2766492 0.7910981 1.1681829
H1 H 1.3797655 0.9010756 1.2709974
H2 H 1.3921613 0.8154725 0.7345567
H5 H 1.1961284 0.7567397 1.2689186
H6 H 1.2948627 0.8191867 1.283128
N2 N 1.050763 0.400066 0.59272751
C7 C 1.1624417 0.6862906 1.99367703
C1 C 1.1061245 0.6078061 1.8507728
C2 C 1.099318 0.6548105 2.145331
C3 C 1.1335333 0.6596758 1.995794727
C4 C 1.1913501 0.7129054 1.991559334
C5 C 1.2820007 0.7459965 1.8402578
C6 C 1.2233508 0.7089019 1.8318171
N1 N 1.0549696 0.5708837 1.91068052
N2 N 1.050763 0.599934 2.09272751
H1 H 1.1202345 0.5989244 1.7290026
H2 H 1.1078387 0.6845275 2.2654433
H5 H 1.3038716 0.7432603 1.7310814
H6 H 1.2051373 0.6808133 1.716872
C7 C 1.3375583 0.8137094 2.00632297
C1 C 1.3938755 0.8921939 2.1492272
C2 C 1.400682 0.8451895 1.854669
C3 C 1.3664667 0.8403242 2.004205273
C4 C 1.3086499 0.7870946 2.008440666
C5 C 1.2179993 0.7540035 2.1597422
C6 C 1.2766492 0.7910981 2.1681829
H1 H 1.3797655 0.9010756 2.2709974
H2 H 1.3921613 0.8154725 1.7345567
H5 H 1.1961284 0.7567397 2.2689186
H6 H 1.2948627 0.8191867 2.283128
N2 N 1.050763 0.400066 1.59272751
C7 C 1.1624417 0.6862906 2.99367703
C1 C 1.1061245 0.6078061 2.8507728
C2 C 1.099318 0.6548105 3.145331
C3 C 1.1335333 0.6596758 2.995794727
C4 C 1.1913501 0.7129054 2.991559334
C5 C 1.2820007 0.7459965 2.8402578
C6 C 1.2233508 0.7089019 2.8318171
N1 N 1.0549696 0.5708837 2.91068052
N2 N 1.050763 0.599934 3.09272751
H1 H 1.1202345 0.5989244 2.7290026
H2 H 1.1078387 0.6845275 3.2654433
H5 H 1.3038716 0.7432603 2.7310814
H6 H 1.2051373 0.6808133 2.716872
C7 C 1.3375583 0.8137094 3.00632297
C1 C 1.3938755 0.8921939 3.1492272
C2 C 1.400682 0.8451895 2.854669
C3 C 1.3664667 0.8403242 3.004205273
C4 C 1.3086499 0.7870946 3.008440666
C5 C 1.2179993 0.7540035 3.1597422
C6 C 1.2766492 0.7910981 3.1681829
H1 H 1.3797655 0.9010756 3.2709974
H2 H 1.3921613 0.8154725 2.7345567
H5 H 1.1961284 0.7567397 3.2689186
H6 H 1.2948627 0.8191867 3.283128
N2 N 1.050763 0.400066 2.59272751
C7 C 1.1624417 0.6862906 3.99367703
C1 C 1.1061245 0.6078061 3.8507728
C2 C 1.099318 0.6548105 4.145331
C3 C 1.1335333 0.6596758 3.995794727
C4 C 1.1913501 0.7129054 3.991559334
C5 C 1.2820007 0.7459965 3.8402578
C6 C 1.2233508 0.7089019 3.8318171
N1 N 1.0549696 0.5708837 3.91068052
N2 N 1.050763 0.599934 4.09272751
H1 H 1.1202345 0.5989244 3.7290026
H2 H 1.1078387 0.6845275 4.2654433
H5 H 1.3038716 0.7432603 3.7310814
H6 H 1.2051373 0.6808133 3.716872
C7 C 1.3375583 0.8137094 4.00632297
C1 C 1.3938755 0.8921939 4.1492272
C2 C 1.400682 0.8451895 3.854669
C3 C 1.3664667 0.8403242 4.004205273
C4 C 1.3086499 0.7870946 4.008440666
C5 C 1.2179993 0.7540035 4.1597422
C6 C 1.2766492 0.7910981 4.1681829
N1 N 1.4450304 0.9291163 4.08931948
H1 H 1.3797655 0.9010756 4.2709974
H2 H 1.3921613 0.8154725 3.7345567
H5 H 1.1961284 0.7567397 4.2689186
H6 H 1.2948627 0.8191867 4.283128
N2 N 1.050763 0.400066 3.59272751
C7 C 1.1624417 1.6862906 0.99367703
C1 C 1.1061245 1.6078061 0.8507728
C2 C 1.099318 1.6548105 1.145331
C3 C 1.1335333 1.6596758 0.995794727
C4 C 1.1913501 1.7129054 0.991559334
C5 C 1.2820007 1.7459965 0.8402578
C6 C 1.2233508 1.7089019 0.8318171
N1 N 1.0549696 1.5708837 0.91068052
N2 N 1.050763 1.599934 1.09272751
H1 H 1.1202345 1.5989244 0.7290026
H2 H 1.1078387 1.6845275 1.2654433
H5 H 1.3038716 1.7432603 0.7310814
H6 H 1.2051373 1.6808133 0.716872
C7 C 1.3375583 1.8137094 1.00632297
C1 C 1.3938755 1.8921939 1.1492272
C2 C 1.400682 1.8451895 0.854669
C3 C 1.3664667 1.8403242 1.004205273
C4 C 1.3086499 1.7870946 1.008440666
C5 C 1.2179993 1.7540035 1.1597422
C6 C 1.2766492 1.7910981 1.1681829
H1 H 1.3797655 1.9010756 1.2709974
H2 H 1.3921613 1.8154725 0.7345567
H5 H 1.1961284 1.7567397 1.2689186
H6 H 1.2948627 1.8191867 1.283128
N2 N 1.050763 1.400066 0.59272751
C7 C 1.1624417 1.6862906 1.99367703
C1 C 1.1061245 1.6078061 1.8507728
C2 C 1.099318 1.6548105 2.145331
C3 C 1.1335333 1.6596758 1.995794727
C4 C 1.1913501 1.7129054 1.991559334
C5 C 1.2820007 1.7459965 1.8402578
C6 C 1.2233508 1.7089019 1.8318171
N1 N 1.0549696 1.5708837 1.91068052
N2 N 1.050763 1.599934 2.09272751
H1 H 1.1202345 1.5989244 1.7290026
H2 H 1.1078387 1.6845275 2.2654433
H5 H 1.3038716 1.7432603 1.7310814
H6 H 1.2051373 1.6808133 1.716872
C7 C 1.3375583 1.8137094 2.00632297
C1 C 1.3938755 1.8921939 2.1492272
C2 C 1.400682 1.8451895 1.854669
C3 C 1.3664667 1.8403242 2.004205273
C4 C 1.3086499 1.7870946 2.008440666
C5 C 1.2179993 1.7540035 2.1597422
C6 C 1.2766492 1.7910981 2.1681829
H1 H 1.3797655 1.9010756 2.2709974
H2 H 1.3921613 1.8154725 1.7345567
H5 H 1.1961284 1.7567397 2.2689186
H6 H 1.2948627 1.8191867 2.283128
N2 N 1.050763 1.400066 1.59272751
C7 C 1.1624417 1.6862906 2.99367703
C1 C 1.1061245 1.6078061 2.8507728
C2 C 1.099318 1.6548105 3.145331
C3 C 1.1335333 1.6596758 2.995794727
C4 C 1.1913501 1.7129054 2.991559334
C5 C 1.2820007 1.7459965 2.8402578
C6 C 1.2233508 1.7089019 2.8318171
N1 N 1.0549696 1.5708837 2.91068052
N2 N 1.050763 1.599934 3.09272751
H1 H 1.1202345 1.5989244 2.7290026
H2 H 1.1078387 1.6845275 3.2654433
H5 H 1.3038716 1.7432603 2.7310814
H6 H 1.2051373 1.6808133 2.716872
C7 C 1.3375583 1.8137094 3.00632297
C1 C 1.3938755 1.8921939 3.1492272
C2 C 1.400682 1.8451895 2.854669
C3 C 1.3664667 1.8403242 3.004205273
C4 C 1.3086499 1.7870946 3.008440666
C5 C 1.2179993 1.7540035 3.1597422
C6 C 1.2766492 1.7910981 3.1681829
H1 H 1.3797655 1.9010756 3.2709974
H2 H 1.3921613 1.8154725 2.7345567
H5 H 1.1961284 1.7567397 3.2689186
H6 H 1.2948627 1.8191867 3.283128
N2 N 1.050763 1.400066 2.59272751
C7 C 1.1624417 1.6862906 3.99367703
C1 C 1.1061245 1.6078061 3.8507728
C2 C 1.099318 1.6548105 4.145331
C3 C 1.1335333 1.6596758 3.995794727
C4 C 1.1913501 1.7129054 3.991559334
C5 C 1.2820007 1.7459965 3.8402578
C6 C 1.2233508 1.7089019 3.8318171
N1 N 1.0549696 1.5708837 3.91068052
N2 N 1.050763 1.599934 4.09272751
H1 H 1.1202345 1.5989244 3.7290026
H2 H 1.1078387 1.6845275 4.2654433
H5 H 1.3038716 1.7432603 3.7310814
H6 H 1.2051373 1.6808133 3.716872
C7 C 1.3375583 1.8137094 4.00632297
C1 C 1.3938755 1.8921939 4.1492272
C2 C 1.400682 1.8451895 3.854669
C3 C 1.3664667 1.8403242 4.004205273
C4 C 1.3086499 1.7870946 4.008440666
C5 C 1.2179993 1.7540035 4.1597422
C6 C 1.2766492 1.7910981 4.1681829
N1 N 1.4450304 1.9291163 4.08931948
H1 H 1.3797655 1.9010756 4.2709974
H2 H 1.3921613 1.8154725 3.7345567
H5 H 1.1961284 1.7567397 4.2689186
H6 H 1.2948627 1.8191867 4.283128
N2 N 1.050763 1.400066 3.59272751
C7 C 1.1624417 2.6862906 0.99367703
C1 C 1.1061245 2.6078061 0.8507728
C2 C 1.099318 2.6548105 1.145331
C3 C 1.1335333 2.6596758 0.995794727
C4 C 1.1913501 2.7129054 0.991559334
C5 C 1.2820007 2.7459965 0.8402578
C6 C 1.2233508 2.7089019 0.8318171
N1 N 1.0549696 2.5708837 0.91068052
N2 N 1.050763 2.599934 1.09272751
H1 H 1.1202345 2.5989244 0.7290026
H2 H 1.1078387 2.6845275 1.2654433
H5 H 1.3038716 2.7432603 0.7310814
H6 H 1.2051373 2.6808133 0.716872
C7 C 1.3375583 2.8137094 1.00632297
C1 C 1.3938755 2.8921939 1.1492272
C2 C 1.400682 2.8451895 0.854669
C3 C 1.3664667 2.8403242 1.004205273
C4 C 1.3086499 2.7870946 1.008440666
C5 C 1.2179993 2.7540035 1.1597422
C6 C 1.2766492 2.7910981 1.1681829
H1 H 1.3797655 2.9010756 1.2709974
H2 H 1.3921613 2.8154725 0.7345567
H5 H 1.1961284 2.7567397 1.2689186
H6 H 1.2948627 2.8191867 1.283128
N2 N 1.050763 2.400066 0.59272751
C7 C 1.1624417 2.6862906 1.99367703
C1 C 1.1061245 2.6078061 1.8507728
C2 C 1.099318 2.6548105 2.145331
C3 C 1.1335333 2.6596758 1.995794727
C4 C 1.1913501 2.7129054 1.991559334
C5 C 1.2820007 2.7459965 1.8402578
C6 C 1.2233508 2.7089019 1.8318171
N1 N 1.0549696 2.5708837 1.91068052
N2 N 1.050763 2.599934 2.09272751
H1 H 1.1202345 2.5989244 1.7290026
H2 H 1.1078387 2.6845275 2.2654433
H5 H 1.3038716 2.7432603 1.7310814
H6 H 1.2051373 2.6808133 1.716872
C7 C 1.3375583 2.8137094 2.00632297
C1 C 1.3938755 2.8921939 2.1492272
C2 C 1.400682 2.8451895 1.854669
C3 C 1.3664667 2.8403242 2.004205273
C4 C 1.3086499 2.7870946 2.008440666
C5 C 1.2179993 2.7540035 2.1597422
C6 C 1.2766492 2.7910981 2.1681829
H1 H 1.3797655 2.9010756 2.2709974
H2 H 1.3921613 2.8154725 1.7345567
H5 H 1.1961284 2.7567397 2.2689186
H6 H 1.2948627 2.8191867 2.283128
N2 N 1.050763 2.400066 1.59272751
C7 C 1.1624417 2.6862906 2.99367703
C1 C 1.1061245 2.6078061 2.8507728
C2 C 1.099318 2.6548105 3.145331
C3 C 1.1335333 2.6596758 2.995794727
C4 C 1.1913501 2.7129054 2.991559334
C5 C 1.2820007 2.7459965 2.8402578
C6 C 1.2233508 2.7089019 2.8318171
N1 N 1.0549696 2.5708837 2.91068052
N2 N 1.050763 2.599934 3.09272751
H1 H 1.1202345 2.5989244 2.7290026
H2 H 1.1078387 2.6845275 3.2654433
H5 H 1.3038716 2.7432603 2.7310814
H6 H 1.2051373 2.6808133 2.716872
C7 C 1.3375583 2.8137094 3.00632297
C1 C 1.3938755 2.8921939 3.1492272
C2 C 1.400682 2.8451895 2.854669
C3 C 1.3664667 2.8403242 3.004205273
C4 C 1.3086499 2.7870946 3.008440666
C5 C 1.2179993 2.7540035 3.1597422
C6 C 1.2766492 2.7910981 3.1681829
H1 H 1.3797655 2.9010756 3.2709974
H2 H 1.3921613 2.8154725 2.7345567
H5 H 1.1961284 2.7567397 3.2689186
H6 H 1.2948627 2.8191867 3.283128
N2 N 1.050763 2.400066 2.59272751
C7 C 1.1624417 2.6862906 3.99367703
C1 C 1.1061245 2.6078061 3.8507728
C2 C 1.099318 2.6548105 4.145331
C3 C 1.1335333 2.6596758 3.995794727
C4 C 1.1913501 2.7129054 3.991559334
C5 C 1.2820007 2.7459965 3.8402578
C6 C 1.2233508 2.7089019 3.8318171
N1 N 1.0549696 2.5708837 3.91068052
N2 N 1.050763 2.599934 4.09272751
H1 H 1.1202345 2.5989244 3.7290026
H2 H 1.1078387 2.6845275 4.2654433
H5 H 1.3038716 2.7432603 3.7310814
H6 H 1.2051373 2.6808133 3.716872
C7 C 1.3375583 2.8137094 4.00632297
C1 C 1.3938755 2.8921939 4.1492272
C2 C 1.400682 2.8451895 3.854669
C3 C 1.3664667 2.8403242 4.004205273
C4 C 1.3086499 2.7870946 4.008440666
C5 C 1.2179993 2.7540035 4.1597422
C6 C 1.2766492 2.7910981 4.1681829
N1 N 1.4450304 2.9291163 4.08931948
H1 H 1.3797655 2.9010756 4.2709974
H2 H 1.3921613 2.8154725 3.7345567
H5 H 1.1961284 2.7567397 4.2689186
H6 H 1.2948627 2.8191867 4.283128
N2 N 1.050763 2.400066 3.59272751
C7 C 1.1624417 3.6862906 0.99367703
C1 C 1.1061245 3.6078061 0.8507728
C2 C 1.099318 3.6548105 1.145331
C3 C 1.1335333 3.6596758 0.995794727
C4 C 1.1913501 3.7129054 0.991559334
C5 C 1.2820007 3.7459965 0.8402578
C6 C 1.2233508 3.7089019 0.8318171
N1 N 1.0549696 3.5708837 0.91068052
N2 N 1.050763 3.599934 1.09272751
H1 H 1.1202345 3.5989244 0.7290026
H2 H 1.1078387 3.6845275 1.2654433
H5 H 1.3038716 3.7432603 0.7310814
H6 H 1.2051373 3.6808133 0.716872
C7 C 1.3375583 3.8137094 1.00632297
C1 C 1.3938755 3.8921939 1.1492272
C2 C 1.400682 3.8451895 0.854669
C3 C 1.3664667 3.8403242 1.004205273
C4 C 1.3086499 3.7870946 1.008440666
C5 C 1.2179993 3.7540035 1.1597422
C6 C 1.2766492 3.7910981 1.1681829
N2 N 1.449237 3.900066 0.90727249
H1 H 1.3797655 3.9010756 1.2709974
H2 H 1.3921613 3.8154725 0.7345567
H5 H 1.1961284 3.7567397 1.2689186
H6 H 1.2948627 3.8191867 1.283128
N2 N 1.050763 3.400066 0.59272751
C7 C 1.1624417 3.6862906 1.99367703
C1 C 1.1061245 3.6078061 1.8507728
C2 C 1.099318 3.6548105 2.145331
C3 C 1.1335333 3.6596758 1.995794727
C4 C 1.1913501 3.7129054 1.991559334
C5 C 1.2820007 3.7459965 1.8402578
C6 C 1.2233508 3.7089019 1.8318171
N1 N 1.0549696 3.5708837 1.91068052
N2 N 1.050763 3.599934 2.09272751
H1 H 1.1202345 3.5989244 1.7290026
H2 H 1.1078387 3.6845275 2.2654433
H5 H 1.3038716 3.7432603 1.7310814
H6 H 1.2051373 3.6808133 1.716872
C7 C 1.3375583 3.8137094 2.00632297
C1 C 1.3938755 3.8921939 2.1492272
C2 C 1.400682 3.8451895 1.854669
C3 C 1.3664667 3.8403242 2.004205273
C4 C 1.3086499 3.7870946 2.008440666
C5 C 1.2179993 3.7540035 2.1597422
C6 C 1.2766492 3.7910981 2.1681829
N2 N 1.449237 3.900066 1.90727249
H1 H 1.3797655 3.9010756 2.2709974
H2 H 1.3921613 3.8154725 1.7345567
H5 H 1.1961284 3.7567397 2.2689186
H6 H 1.2948627 3.8191867 2.283128
N2 N 1.050763 3.400066 1.59272751
C7 C 1.1624417 3.6862906 2.99367703
C1 C 1.1061245 3.6078061 2.8507728
C2 C 1.099318 3.6548105 3.145331
C3 C 1.1335333 3.6596758 2.995794727
C4 C 1.1913501 3.7129054 2.991559334
C5 C 1.2820007 3.7459965 2.8402578
C6 C 1.2233508 3.7089019 2.8318171
N1 N 1.0549696 3.5708837 2.91068052
N2 N 1.050763 3.599934 3.09272751
H1 H 1.1202345 3.5989244 2.7290026
H2 H 1.1078387 3.6845275 3.2654433
H5 H 1.3038716 3.7432603 2.7310814
H6 H 1.2051373 3.6808133 2.716872
C7 C 1.3375583 3.8137094 3.00632297
C1 C 1.3938755 3.8921939 3.1492272
C2 C 1.400682 3.8451895 2.854669
C3 C 1.3664667 3.8403242 3.004205273
C4 C 1.3086499 3.7870946 3.008440666
C5 C 1.2179993 3.7540035 3.1597422
C6 C 1.2766492 3.7910981 3.1681829
N2 N 1.449237 3.900066 2.90727249
H1 H 1.3797655 3.9010756 3.2709974
H2 H 1.3921613 3.8154725 2.7345567
H5 H 1.1961284 3.7567397 3.2689186
H6 H 1.2948627 3.8191867 3.283128
N2 N 1.050763 3.400066 2.59272751
C7 C 1.1624417 3.6862906 3.99367703
C1 C 1.1061245 3.6078061 3.8507728
C2 C 1.099318 3.6548105 4.145331
C3 C 1.1335333 3.6596758 3.995794727
C4 C 1.1913501 3.7129054 3.991559334
C5 C 1.2820007 3.7459965 3.8402578
C6 C 1.2233508 3.7089019 3.8318171
N1 N 1.0549696 3.5708837 3.91068052
N2 N 1.050763 3.599934 4.09272751
H1 H 1.1202345 3.5989244 3.7290026
H2 H 1.1078387 3.6845275 4.2654433
H5 H 1.3038716 3.7432603 3.7310814
H6 H 1.2051373 3.6808133 3.716872
C7 C 1.3375583 3.8137094 4.00632297
C1 C 1.3938755 3.8921939 4.1492272
C2 C 1.400682 3.8451895 3.854669
C3 C 1.3664667 3.8403242 4.004205273
C4 C 1.3086499 3.7870946 4.008440666
C5 C 1.2179993 3.7540035 4.1597422
C6 C 1.2766492 3.7910981 4.1681829
N1 N 1.4450304 3.9291163 4.08931948
N2 N 1.449237 3.900066 3.90727249
H1 H 1.3797655 3.9010756 4.2709974
H2 H 1.3921613 3.8154725 3.7345567
H5 H 1.1961284 3.7567397 4.2689186
H6 H 1.2948627 3.8191867 4.283128
N2 N 1.050763 3.400066 3.59272751
Co Co 1.5 4.01922(60) 4.25
C7 C 2.1624417 0.6862906 0.99367703
C1 C 2.1061245 0.6078061 0.8507728
C2 C 2.099318 0.6548105 1.145331
C3 C 2.1335333 0.6596758 0.995794727
C4 C 2.1913501 0.7129054 0.991559334
C5 C 2.2820007 0.7459965 0.8402578
C6 C 2.2233508 0.7089019 0.8318171
N1 N 2.0549696 0.5708837 0.91068052
N2 N 2.050763 0.599934 1.09272751
H1 H 2.1202345 0.5989244 0.7290026
H2 H 2.1078387 0.6845275 1.2654433
H5 H 2.3038716 0.7432603 0.7310814
H6 H 2.2051373 0.6808133 0.716872
C7 C 2.3375583 0.8137094 1.00632297
C1 C 2.3938755 0.8921939 1.1492272
C2 C 2.400682 0.8451895 0.854669
C3 C 2.3664667 0.8403242 1.004205273
C4 C 2.3086499 0.7870946 1.008440666
C5 C 2.2179993 0.7540035 1.1597422
C6 C 2.2766492 0.7910981 1.1681829
H1 H 2.3797655 0.9010756 1.2709974
H2 H 2.3921613 0.8154725 0.7345567
H5 H 2.1961284 0.7567397 1.2689186
H6 H 2.2948627 0.8191867 1.283128
N2 N 2.050763 0.400066 0.59272751
C7 C 2.1624417 0.6862906 1.99367703
C1 C 2.1061245 0.6078061 1.8507728
C2 C 2.099318 0.6548105 2.145331
C3 C 2.1335333 0.6596758 1.995794727
C4 C 2.1913501 0.7129054 1.991559334
C5 C 2.2820007 0.7459965 1.8402578
C6 C 2.2233508 0.7089019 1.8318171
N1 N 2.0549696 0.5708837 1.91068052
N2 N 2.050763 0.599934 2.09272751
H1 H 2.1202345 0.5989244 1.7290026
H2 H 2.1078387 0.6845275 2.2654433
H5 H 2.3038716 0.7432603 1.7310814
H6 H 2.2051373 0.6808133 1.716872
C7 C 2.3375583 0.8137094 2.00632297
C1 C 2.3938755 0.8921939 2.1492272
C2 C 2.400682 0.8451895 1.854669
C3 C 2.3664667 0.8403242 2.004205273
C4 C 2.3086499 0.7870946 2.008440666
C5 C 2.2179993 0.7540035 2.1597422
C6 C 2.2766492 0.7910981 2.1681829
H1 H 2.3797655 0.9010756 2.2709974
H2 H 2.3921613 0.8154725 1.7345567
H5 H 2.1961284 0.7567397 2.2689186
H6 H 2.2948627 0.8191867 2.283128
N2 N 2.050763 0.400066 1.59272751
C7 C 2.1624417 0.6862906 2.99367703
C1 C 2.1061245 0.6078061 2.8507728
C2 C 2.099318 0.6548105 3.145331
C3 C 2.1335333 0.6596758 2.995794727
C4 C 2.1913501 0.7129054 2.991559334
C5 C 2.2820007 0.7459965 2.8402578
C6 C 2.2233508 0.7089019 2.8318171
N1 N 2.0549696 0.5708837 2.91068052
N2 N 2.050763 0.599934 3.09272751
H1 H 2.1202345 0.5989244 2.7290026
H2 H 2.1078387 0.6845275 3.2654433
H5 H 2.3038716 0.7432603 2.7310814
H6 H 2.2051373 0.6808133 2.716872
C7 C 2.3375583 0.8137094 3.00632297
C1 C 2.3938755 0.8921939 3.1492272
C2 C 2.400682 0.8451895 2.854669
C3 C 2.3664667 0.8403242 3.004205273
C4 C 2.3086499 0.7870946 3.008440666
C5 C 2.2179993 0.7540035 3.1597422
C6 C 2.2766492 0.7910981 3.1681829
H1 H 2.3797655 0.9010756 3.2709974
H2 H 2.3921613 0.8154725 2.7345567
H5 H 2.1961284 0.7567397 3.2689186
H6 H 2.2948627 0.8191867 3.283128
N2 N 2.050763 0.400066 2.59272751
C7 C 2.1624417 0.6862906 3.99367703
C1 C 2.1061245 0.6078061 3.8507728
C2 C 2.099318 0.6548105 4.145331
C3 C 2.1335333 0.6596758 3.995794727
C4 C 2.1913501 0.7129054 3.991559334
C5 C 2.2820007 0.7459965 3.8402578
C6 C 2.2233508 0.7089019 3.8318171
N1 N 2.0549696 0.5708837 3.91068052
N2 N 2.050763 0.599934 4.09272751
H1 H 2.1202345 0.5989244 3.7290026
H2 H 2.1078387 0.6845275 4.2654433
H5 H 2.3038716 0.7432603 3.7310814
H6 H 2.2051373 0.6808133 3.716872
C7 C 2.3375583 0.8137094 4.00632297
C1 C 2.3938755 0.8921939 4.1492272
C2 C 2.400682 0.8451895 3.854669
C3 C 2.3664667 0.8403242 4.004205273
C4 C 2.3086499 0.7870946 4.008440666
C5 C 2.2179993 0.7540035 4.1597422
C6 C 2.2766492 0.7910981 4.1681829
N1 N 2.4450304 0.9291163 4.08931948
H1 H 2.3797655 0.9010756 4.2709974
H2 H 2.3921613 0.8154725 3.7345567
H5 H 2.1961284 0.7567397 4.2689186
H6 H 2.2948627 0.8191867 4.283128
N2 N 2.050763 0.400066 3.59272751
C7 C 2.1624417 1.6862906 0.99367703
C1 C 2.1061245 1.6078061 0.8507728
C2 C 2.099318 1.6548105 1.145331
C3 C 2.1335333 1.6596758 0.995794727
C4 C 2.1913501 1.7129054 0.991559334
C5 C 2.2820007 1.7459965 0.8402578
C6 C 2.2233508 1.7089019 0.8318171
N1 N 2.0549696 1.5708837 0.91068052
N2 N 2.050763 1.599934 1.09272751
H1 H 2.1202345 1.5989244 0.7290026
H2 H 2.1078387 1.6845275 1.2654433
H5 H 2.3038716 1.7432603 0.7310814
H6 H 2.2051373 1.6808133 0.716872
C7 C 2.3375583 1.8137094 1.00632297
C1 C 2.3938755 1.8921939 1.1492272
C2 C 2.400682 1.8451895 0.854669
C3 C 2.3664667 1.8403242 1.004205273
C4 C 2.3086499 1.7870946 1.008440666
C5 C 2.2179993 1.7540035 1.1597422
C6 C 2.2766492 1.7910981 1.1681829
H1 H 2.3797655 1.9010756 1.2709974
H2 H 2.3921613 1.8154725 0.7345567
H5 H 2.1961284 1.7567397 1.2689186
H6 H 2.2948627 1.8191867 1.283128
N2 N 2.050763 1.400066 0.59272751
C7 C 2.1624417 1.6862906 1.99367703
C1 C 2.1061245 1.6078061 1.8507728
C2 C 2.099318 1.6548105 2.145331
C3 C 2.1335333 1.6596758 1.995794727
C4 C 2.1913501 1.7129054 1.991559334
C5 C 2.2820007 1.7459965 1.8402578
C6 C 2.2233508 1.7089019 1.8318171
N1 N 2.0549696 1.5708837 1.91068052
N2 N 2.050763 1.599934 2.09272751
H1 H 2.1202345 1.5989244 1.7290026
H2 H 2.1078387 1.6845275 2.2654433
H5 H 2.3038716 1.7432603 1.7310814
H6 H 2.2051373 1.6808133 1.716872
C7 C 2.3375583 1.8137094 2.00632297
C1 C 2.3938755 1.8921939 2.1492272
C2 C 2.400682 1.8451895 1.854669
C3 C 2.3664667 1.8403242 2.004205273
C4 C 2.3086499 1.7870946 2.008440666
C5 C 2.2179993 1.7540035 2.1597422
C6 C 2.2766492 1.7910981 2.1681829
H1 H 2.3797655 1.9010756 2.2709974
H2 H 2.3921613 1.8154725 1.7345567
H5 H 2.1961284 1.7567397 2.2689186
H6 H 2.2948627 1.8191867 2.283128
N2 N 2.050763 1.400066 1.59272751
C7 C 2.1624417 1.6862906 2.99367703
C1 C 2.1061245 1.6078061 2.8507728
C2 C 2.099318 1.6548105 3.145331
C3 C 2.1335333 1.6596758 2.995794727
C4 C 2.1913501 1.7129054 2.991559334
C5 C 2.2820007 1.7459965 2.8402578
C6 C 2.2233508 1.7089019 2.8318171
N1 N 2.0549696 1.5708837 2.91068052
N2 N 2.050763 1.599934 3.09272751
H1 H 2.1202345 1.5989244 2.7290026
H2 H 2.1078387 1.6845275 3.2654433
H5 H 2.3038716 1.7432603 2.7310814
H6 H 2.2051373 1.6808133 2.716872
C7 C 2.3375583 1.8137094 3.00632297
C1 C 2.3938755 1.8921939 3.1492272
C2 C 2.400682 1.8451895 2.854669
C3 C 2.3664667 1.8403242 3.004205273
C4 C 2.3086499 1.7870946 3.008440666
C5 C 2.2179993 1.7540035 3.1597422
C6 C 2.2766492 1.7910981 3.1681829
H1 H 2.3797655 1.9010756 3.2709974
H2 H 2.3921613 1.8154725 2.7345567
H5 H 2.1961284 1.7567397 3.2689186
H6 H 2.2948627 1.8191867 3.283128
N2 N 2.050763 1.400066 2.59272751
C7 C 2.1624417 1.6862906 3.99367703
C1 C 2.1061245 1.6078061 3.8507728
C2 C 2.099318 1.6548105 4.145331
C3 C 2.1335333 1.6596758 3.995794727
C4 C 2.1913501 1.7129054 3.991559334
C5 C 2.2820007 1.7459965 3.8402578
C6 C 2.2233508 1.7089019 3.8318171
N1 N 2.0549696 1.5708837 3.91068052
N2 N 2.050763 1.599934 4.09272751
H1 H 2.1202345 1.5989244 3.7290026
H2 H 2.1078387 1.6845275 4.2654433
H5 H 2.3038716 1.7432603 3.7310814
H6 H 2.2051373 1.6808133 3.716872
C7 C 2.3375583 1.8137094 4.00632297
C1 C 2.3938755 1.8921939 4.1492272
C2 C 2.400682 1.8451895 3.854669
C3 C 2.3664667 1.8403242 4.004205273
C4 C 2.3086499 1.7870946 4.008440666
C5 C 2.2179993 1.7540035 4.1597422
C6 C 2.2766492 1.7910981 4.1681829
N1 N 2.4450304 1.9291163 4.08931948
H1 H 2.3797655 1.9010756 4.2709974
H2 H 2.3921613 1.8154725 3.7345567
H5 H 2.1961284 1.7567397 4.2689186
H6 H 2.2948627 1.8191867 4.283128
N2 N 2.050763 1.400066 3.59272751
C7 C 2.1624417 2.6862906 0.99367703
C1 C 2.1061245 2.6078061 0.8507728
C2 C 2.099318 2.6548105 1.145331
C3 C 2.1335333 2.6596758 0.995794727
C4 C 2.1913501 2.7129054 0.991559334
C5 C 2.2820007 2.7459965 0.8402578
C6 C 2.2233508 2.7089019 0.8318171
N1 N 2.0549696 2.5708837 0.91068052
N2 N 2.050763 2.599934 1.09272751
H1 H 2.1202345 2.5989244 0.7290026
H2 H 2.1078387 2.6845275 1.2654433
H5 H 2.3038716 2.7432603 0.7310814
H6 H 2.2051373 2.6808133 0.716872
C7 C 2.3375583 2.8137094 1.00632297
C1 C 2.3938755 2.8921939 1.1492272
C2 C 2.400682 2.8451895 0.854669
C3 C 2.3664667 2.8403242 1.004205273
C4 C 2.3086499 2.7870946 1.008440666
C5 C 2.2179993 2.7540035 1.1597422
C6 C 2.2766492 2.7910981 1.1681829
H1 H 2.3797655 2.9010756 1.2709974
H2 H 2.3921613 2.8154725 0.7345567
H5 H 2.1961284 2.7567397 1.2689186
H6 H 2.2948627 2.8191867 1.283128
N2 N 2.050763 2.400066 0.59272751
C7 C 2.1624417 2.6862906 1.99367703
C1 C 2.1061245 2.6078061 1.8507728
C2 C 2.099318 2.6548105 2.145331
C3 C 2.1335333 2.6596758 1.995794727
C4 C 2.1913501 2.7129054 1.991559334
C5 C 2.2820007 2.7459965 1.8402578
C6 C 2.2233508 2.7089019 1.8318171
N1 N 2.0549696 2.5708837 1.91068052
N2 N 2.050763 2.599934 2.09272751
H1 H 2.1202345 2.5989244 1.7290026
H2 H 2.1078387 2.6845275 2.2654433
H5 H 2.3038716 2.7432603 1.7310814
H6 H 2.2051373 2.6808133 1.716872
C7 C 2.3375583 2.8137094 2.00632297
C1 C 2.3938755 2.8921939 2.1492272
C2 C 2.400682 2.8451895 1.854669
C3 C 2.3664667 2.8403242 2.004205273
C4 C 2.3086499 2.7870946 2.008440666
C5 C 2.2179993 2.7540035 2.1597422
C6 C 2.2766492 2.7910981 2.1681829
H1 H 2.3797655 2.9010756 2.2709974
H2 H 2.3921613 2.8154725 1.7345567
H5 H 2.1961284 2.7567397 2.2689186
H6 H 2.2948627 2.8191867 2.283128
N2 N 2.050763 2.400066 1.59272751
C7 C 2.1624417 2.6862906 2.99367703
C1 C 2.1061245 2.6078061 2.8507728
C2 C 2.099318 2.6548105 3.145331
C3 C 2.1335333 2.6596758 2.995794727
C4 C 2.1913501 2.7129054 2.991559334
C5 C 2.2820007 2.7459965 2.8402578
C6 C 2.2233508 2.7089019 2.8318171
N1 N 2.0549696 2.5708837 2.91068052
N2 N 2.050763 2.599934 3.09272751
H1 H 2.1202345 2.5989244 2.7290026
H2 H 2.1078387 2.6845275 3.2654433
H5 H 2.3038716 2.7432603 2.7310814
H6 H 2.2051373 2.6808133 2.716872
C7 C 2.3375583 2.8137094 3.00632297
C1 C 2.3938755 2.8921939 3.1492272
C2 C 2.400682 2.8451895 2.854669
C3 C 2.3664667 2.8403242 3.004205273
C4 C 2.3086499 2.7870946 3.008440666
C5 C 2.2179993 2.7540035 3.1597422
C6 C 2.2766492 2.7910981 3.1681829
H1 H 2.3797655 2.9010756 3.2709974
H2 H 2.3921613 2.8154725 2.7345567
H5 H 2.1961284 2.7567397 3.2689186
H6 H 2.2948627 2.8191867 3.283128
N2 N 2.050763 2.400066 2.59272751
C7 C 2.1624417 2.6862906 3.99367703
C1 C 2.1061245 2.6078061 3.8507728
C2 C 2.099318 2.6548105 4.145331
C3 C 2.1335333 2.6596758 3.995794727
C4 C 2.1913501 2.7129054 3.991559334
C5 C 2.2820007 2.7459965 3.8402578
C6 C 2.2233508 2.7089019 3.8318171
N1 N 2.0549696 2.5708837 3.91068052
N2 N 2.050763 2.599934 4.09272751
H1 H 2.1202345 2.5989244 3.7290026
H2 H 2.1078387 2.6845275 4.2654433
H5 H 2.3038716 2.7432603 3.7310814
H6 H 2.2051373 2.6808133 3.716872
C7 C 2.3375583 2.8137094 4.00632297
C1 C 2.3938755 2.8921939 4.1492272
C2 C 2.400682 2.8451895 3.854669
C3 C 2.3664667 2.8403242 4.004205273
C4 C 2.3086499 2.7870946 4.008440666
C5 C 2.2179993 2.7540035 4.1597422
C6 C 2.2766492 2.7910981 4.1681829
N1 N 2.4450304 2.9291163 4.08931948
H1 H 2.3797655 2.9010756 4.2709974
H2 H 2.3921613 2.8154725 3.7345567
H5 H 2.1961284 2.7567397 4.2689186
H6 H 2.2948627 2.8191867 4.283128
N2 N 2.050763 2.400066 3.59272751
C7 C 2.1624417 3.6862906 0.99367703
C1 C 2.1061245 3.6078061 0.8507728
C2 C 2.099318 3.6548105 1.145331
C3 C 2.1335333 3.6596758 0.995794727
C4 C 2.1913501 3.7129054 0.991559334
C5 C 2.2820007 3.7459965 0.8402578
C6 C 2.2233508 3.7089019 0.8318171
N1 N 2.0549696 3.5708837 0.91068052
N2 N 2.050763 3.599934 1.09272751
H1 H 2.1202345 3.5989244 0.7290026
H2 H 2.1078387 3.6845275 1.2654433
H5 H 2.3038716 3.7432603 0.7310814
H6 H 2.2051373 3.6808133 0.716872
C7 C 2.3375583 3.8137094 1.00632297
C1 C 2.3938755 3.8921939 1.1492272
C2 C 2.400682 3.8451895 0.854669
C3 C 2.3664667 3.8403242 1.004205273
C4 C 2.3086499 3.7870946 1.008440666
C5 C 2.2179993 3.7540035 1.1597422
C6 C 2.2766492 3.7910981 1.1681829
N2 N 2.449237 3.900066 0.90727249
H1 H 2.3797655 3.9010756 1.2709974
H2 H 2.3921613 3.8154725 0.7345567
H5 H 2.1961284 3.7567397 1.2689186
H6 H 2.2948627 3.8191867 1.283128
N2 N 2.050763 3.400066 0.59272751
C7 C 2.1624417 3.6862906 1.99367703
C1 C 2.1061245 3.6078061 1.8507728
C2 C 2.099318 3.6548105 2.145331
C3 C 2.1335333 3.6596758 1.995794727
C4 C 2.1913501 3.7129054 1.991559334
C5 C 2.2820007 3.7459965 1.8402578
C6 C 2.2233508 3.7089019 1.8318171
N1 N 2.0549696 3.5708837 1.91068052
N2 N 2.050763 3.599934 2.09272751
H1 H 2.1202345 3.5989244 1.7290026
H2 H 2.1078387 3.6845275 2.2654433
H5 H 2.3038716 3.7432603 1.7310814
H6 H 2.2051373 3.6808133 1.716872
C7 C 2.3375583 3.8137094 2.00632297
C1 C 2.3938755 3.8921939 2.1492272
C2 C 2.400682 3.8451895 1.854669
C3 C 2.3664667 3.8403242 2.004205273
C4 C 2.3086499 3.7870946 2.008440666
C5 C 2.2179993 3.7540035 2.1597422
C6 C 2.2766492 3.7910981 2.1681829
N2 N 2.449237 3.900066 1.90727249
H1 H 2.3797655 3.9010756 2.2709974
H2 H 2.3921613 3.8154725 1.7345567
H5 H 2.1961284 3.7567397 2.2689186
H6 H 2.2948627 3.8191867 2.283128
N2 N 2.050763 3.400066 1.59272751
C7 C 2.1624417 3.6862906 2.99367703
C1 C 2.1061245 3.6078061 2.8507728
C2 C 2.099318 3.6548105 3.145331
C3 C 2.1335333 3.6596758 2.995794727
C4 C 2.1913501 3.7129054 2.991559334
C5 C 2.2820007 3.7459965 2.8402578
C6 C 2.2233508 3.7089019 2.8318171
N1 N 2.0549696 3.5708837 2.91068052
N2 N 2.050763 3.599934 3.09272751
H1 H 2.1202345 3.5989244 2.7290026
H2 H 2.1078387 3.6845275 3.2654433
H5 H 2.3038716 3.7432603 2.7310814
H6 H 2.2051373 3.6808133 2.716872
C7 C 2.3375583 3.8137094 3.00632297
C1 C 2.3938755 3.8921939 3.1492272
C2 C 2.400682 3.8451895 2.854669
C3 C 2.3664667 3.8403242 3.004205273
C4 C 2.3086499 3.7870946 3.008440666
C5 C 2.2179993 3.7540035 3.1597422
C6 C 2.2766492 3.7910981 3.1681829
N2 N 2.449237 3.900066 2.90727249
H1 H 2.3797655 3.9010756 3.2709974
H2 H 2.3921613 3.8154725 2.7345567
H5 H 2.1961284 3.7567397 3.2689186
H6 H 2.2948627 3.8191867 3.283128
N2 N 2.050763 3.400066 2.59272751
C7 C 2.1624417 3.6862906 3.99367703
C1 C 2.1061245 3.6078061 3.8507728
C2 C 2.099318 3.6548105 4.145331
C3 C 2.1335333 3.6596758 3.995794727
C4 C 2.1913501 3.7129054 3.991559334
C5 C 2.2820007 3.7459965 3.8402578
C6 C 2.2233508 3.7089019 3.8318171
N1 N 2.0549696 3.5708837 3.91068052
N2 N 2.050763 3.599934 4.09272751
H1 H 2.1202345 3.5989244 3.7290026
H2 H 2.1078387 3.6845275 4.2654433
H5 H 2.3038716 3.7432603 3.7310814
H6 H 2.2051373 3.6808133 3.716872
C7 C 2.3375583 3.8137094 4.00632297
C1 C 2.3938755 3.8921939 4.1492272
C2 C 2.400682 3.8451895 3.854669
C3 C 2.3664667 3.8403242 4.004205273
C4 C 2.3086499 3.7870946 4.008440666
C5 C 2.2179993 3.7540035 4.1597422
C6 C 2.2766492 3.7910981 4.1681829
N1 N 2.4450304 3.9291163 4.08931948
N2 N 2.449237 3.900066 3.90727249
H1 H 2.3797655 3.9010756 4.2709974
H2 H 2.3921613 3.8154725 3.7345567
H5 H 2.1961284 3.7567397 4.2689186
H6 H 2.2948627 3.8191867 4.283128
N2 N 2.050763 3.400066 3.59272751
Co Co 2.5 4.01922(60) 4.25
C7 C 3.1624417 0.6862906 0.99367703
C1 C 3.1061245 0.6078061 0.8507728
C2 C 3.099318 0.6548105 1.145331
C3 C 3.1335333 0.6596758 0.995794727
C4 C 3.1913501 0.7129054 0.991559334
C5 C 3.2820007 0.7459965 0.8402578
C6 C 3.2233508 0.7089019 0.8318171
N1 N 3.0549696 0.5708837 0.91068052
N2 N 3.050763 0.599934 1.09272751
H1 H 3.1202345 0.5989244 0.7290026
H2 H 3.1078387 0.6845275 1.2654433
H5 H 3.3038716 0.7432603 0.7310814
H6 H 3.2051373 0.6808133 0.716872
C7 C 3.3375583 0.8137094 1.00632297
C1 C 3.3938755 0.8921939 1.1492272
C2 C 3.400682 0.8451895 0.854669
C3 C 3.3664667 0.8403242 1.004205273
C4 C 3.3086499 0.7870946 1.008440666
C5 C 3.2179993 0.7540035 1.1597422
C6 C 3.2766492 0.7910981 1.1681829
H1 H 3.3797655 0.9010756 1.2709974
H2 H 3.3921613 0.8154725 0.7345567
H5 H 3.1961284 0.7567397 1.2689186
H6 H 3.2948627 0.8191867 1.283128
N2 N 3.050763 0.400066 0.59272751
C7 C 3.1624417 0.6862906 1.99367703
C1 C 3.1061245 0.6078061 1.8507728
C2 C 3.099318 0.6548105 2.145331
C3 C 3.1335333 0.6596758 1.995794727
C4 C 3.1913501 0.7129054 1.991559334
C5 C 3.2820007 0.7459965 1.8402578
C6 C 3.2233508 0.7089019 1.8318171
N1 N 3.0549696 0.5708837 1.91068052
N2 N 3.050763 0.599934 2.09272751
H1 H 3.1202345 0.5989244 1.7290026
H2 H 3.1078387 0.6845275 2.2654433
H5 H 3.3038716 0.7432603 1.7310814
H6 H 3.2051373 0.6808133 1.716872
C7 C 3.3375583 0.8137094 2.00632297
C1 C 3.3938755 0.8921939 2.1492272
C2 C 3.400682 0.8451895 1.854669
C3 C 3.3664667 0.8403242 2.004205273
C4 C 3.3086499 0.7870946 2.008440666
C5 C 3.2179993 0.7540035 2.1597422
C6 C 3.2766492 0.7910981 2.1681829
H1 H 3.3797655 0.9010756 2.2709974
H2 H 3.3921613 0.8154725 1.7345567
H5 H 3.1961284 0.7567397 2.2689186
H6 H 3.2948627 0.8191867 2.283128
N2 N 3.050763 0.400066 1.59272751
C7 C 3.1624417 0.6862906 2.99367703
C1 C 3.1061245 0.6078061 2.8507728
C2 C 3.099318 0.6548105 3.145331
C3 C 3.1335333 0.6596758 2.995794727
C4 C 3.1913501 0.7129054 2.991559334
C5 C 3.2820007 0.7459965 2.8402578
C6 C 3.2233508 0.7089019 2.8318171
N1 N 3.0549696 0.5708837 2.91068052
N2 N 3.050763 0.599934 3.09272751
H1 H 3.1202345 0.5989244 2.7290026
H2 H 3.1078387 0.6845275 3.2654433
H5 H 3.3038716 0.7432603 2.7310814
H6 H 3.2051373 0.6808133 2.716872
C7 C 3.3375583 0.8137094 3.00632297
C1 C 3.3938755 0.8921939 3.1492272
C2 C 3.400682 0.8451895 2.854669
C3 C 3.3664667 0.8403242 3.004205273
C4 C 3.3086499 0.7870946 3.008440666
C5 C 3.2179993 0.7540035 3.1597422
C6 C 3.2766492 0.7910981 3.1681829
H1 H 3.3797655 0.9010756 3.2709974
H2 H 3.3921613 0.8154725 2.7345567
H5 H 3.1961284 0.7567397 3.2689186
H6 H 3.2948627 0.8191867 3.283128
N2 N 3.050763 0.400066 2.59272751
C7 C 3.1624417 0.6862906 3.99367703
C1 C 3.1061245 0.6078061 3.8507728
C2 C 3.099318 0.6548105 4.145331
C3 C 3.1335333 0.6596758 3.995794727
C4 C 3.1913501 0.7129054 3.991559334
C5 C 3.2820007 0.7459965 3.8402578
C6 C 3.2233508 0.7089019 3.8318171
N1 N 3.0549696 0.5708837 3.91068052
N2 N 3.050763 0.599934 4.09272751
H1 H 3.1202345 0.5989244 3.7290026
H2 H 3.1078387 0.6845275 4.2654433
H5 H 3.3038716 0.7432603 3.7310814
H6 H 3.2051373 0.6808133 3.716872
C7 C 3.3375583 0.8137094 4.00632297
C1 C 3.3938755 0.8921939 4.1492272
C2 C 3.400682 0.8451895 3.854669
C3 C 3.3664667 0.8403242 4.004205273
C4 C 3.3086499 0.7870946 4.008440666
C5 C 3.2179993 0.7540035 4.1597422
C6 C 3.2766492 0.7910981 4.1681829
N1 N 3.4450304 0.9291163 4.08931948
H1 H 3.3797655 0.9010756 4.2709974
H2 H 3.3921613 0.8154725 3.7345567
H5 H 3.1961284 0.7567397 4.2689186
H6 H 3.2948627 0.8191867 4.283128
N2 N 3.050763 0.400066 3.59272751
C7 C 3.1624417 1.6862906 0.99367703
C1 C 3.1061245 1.6078061 0.8507728
C2 C 3.099318 1.6548105 1.145331
C3 C 3.1335333 1.6596758 0.995794727
C4 C 3.1913501 1.7129054 0.991559334
C5 C 3.2820007 1.7459965 0.8402578
C6 C 3.2233508 1.7089019 0.8318171
N1 N 3.0549696 1.5708837 0.91068052
N2 N 3.050763 1.599934 1.09272751
H1 H 3.1202345 1.5989244 0.7290026
H2 H 3.1078387 1.6845275 1.2654433
H5 H 3.3038716 1.7432603 0.7310814
H6 H 3.2051373 1.6808133 0.716872
C7 C 3.3375583 1.8137094 1.00632297
C1 C 3.3938755 1.8921939 1.1492272
C2 C 3.400682 1.8451895 0.854669
C3 C 3.3664667 1.8403242 1.004205273
C4 C 3.3086499 1.7870946 1.008440666
C5 C 3.2179993 1.7540035 1.1597422
C6 C 3.2766492 1.7910981 1.1681829
H1 H 3.3797655 1.9010756 1.2709974
H2 H 3.3921613 1.8154725 0.7345567
H5 H 3.1961284 1.7567397 1.2689186
H6 H 3.2948627 1.8191867 1.283128
N2 N 3.050763 1.400066 0.59272751
C7 C 3.1624417 1.6862906 1.99367703
C1 C 3.1061245 1.6078061 1.8507728
C2 C 3.099318 1.6548105 2.145331
C3 C 3.1335333 1.6596758 1.995794727
C4 C 3.1913501 1.7129054 1.991559334
C5 C 3.2820007 1.7459965 1.8402578
C6 C 3.2233508 1.7089019 1.8318171
N1 N 3.0549696 1.5708837 1.91068052
N2 N 3.050763 1.599934 2.09272751
H1 H 3.1202345 1.5989244 1.7290026
H2 H 3.1078387 1.6845275 2.2654433
H5 H 3.3038716 1.7432603 1.7310814
H6 H 3.2051373 1.6808133 1.716872
C7 C 3.3375583 1.8137094 2.00632297
C1 C 3.3938755 1.8921939 2.1492272
C2 C 3.400682 1.8451895 1.854669
C3 C 3.3664667 1.8403242 2.004205273
C4 C 3.3086499 1.7870946 2.008440666
C5 C 3.2179993 1.7540035 2.1597422
C6 C 3.2766492 1.7910981 2.1681829
H1 H 3.3797655 1.9010756 2.2709974
H2 H 3.3921613 1.8154725 1.7345567
H5 H 3.1961284 1.7567397 2.2689186
H6 H 3.2948627 1.8191867 2.283128
N2 N 3.050763 1.400066 1.59272751
C7 C 3.1624417 1.6862906 2.99367703
C1 C 3.1061245 1.6078061 2.8507728
C2 C 3.099318 1.6548105 3.145331
C3 C 3.1335333 1.6596758 2.995794727
C4 C 3.1913501 1.7129054 2.991559334
C5 C 3.2820007 1.7459965 2.8402578
C6 C 3.2233508 1.7089019 2.8318171
N1 N 3.0549696 1.5708837 2.91068052
N2 N 3.050763 1.599934 3.09272751
H1 H 3.1202345 1.5989244 2.7290026
H2 H 3.1078387 1.6845275 3.2654433
H5 H 3.3038716 1.7432603 2.7310814
H6 H 3.2051373 1.6808133 2.716872
C7 C 3.3375583 1.8137094 3.00632297
C1 C 3.3938755 1.8921939 3.1492272
C2 C 3.400682 1.8451895 2.854669
C3 C 3.3664667 1.8403242 3.004205273
C4 C 3.3086499 1.7870946 3.008440666
C5 C 3.2179993 1.7540035 3.1597422
C6 C 3.2766492 1.7910981 3.1681829
H1 H 3.3797655 1.9010756 3.2709974
H2 H 3.3921613 1.8154725 2.7345567
H5 H 3.1961284 1.7567397 3.2689186
H6 H 3.2948627 1.8191867 3.283128
N2 N 3.050763 1.400066 2.59272751
C7 C 3.1624417 1.6862906 3.99367703
C1 C 3.1061245 1.6078061 3.8507728
C2 C 3.099318 1.6548105 4.145331
C3 C 3.1335333 1.6596758 3.995794727
C4 C 3.1913501 1.7129054 3.991559334
C5 C 3.2820007 1.7459965 3.8402578
C6 C 3.2233508 1.7089019 3.8318171
N1 N 3.0549696 1.5708837 3.91068052
N2 N 3.050763 1.599934 4.09272751
H1 H 3.1202345 1.5989244 3.7290026
H2 H 3.1078387 1.6845275 4.2654433
H5 H 3.3038716 1.7432603 3.7310814
H6 H 3.2051373 1.6808133 3.716872
C7 C 3.3375583 1.8137094 4.00632297
C1 C 3.3938755 1.8921939 4.1492272
C2 C 3.400682 1.8451895 3.854669
C3 C 3.3664667 1.8403242 4.004205273
C4 C 3.3086499 1.7870946 4.008440666
C5 C 3.2179993 1.7540035 4.1597422
C6 C 3.2766492 1.7910981 4.1681829
N1 N 3.4450304 1.9291163 4.08931948
H1 H 3.3797655 1.9010756 4.2709974
H2 H 3.3921613 1.8154725 3.7345567
H5 H 3.1961284 1.7567397 4.2689186
H6 H 3.2948627 1.8191867 4.283128
N2 N 3.050763 1.400066 3.59272751
C7 C 3.1624417 2.6862906 0.99367703
C1 C 3.1061245 2.6078061 0.8507728
C2 C 3.099318 2.6548105 1.145331
C3 C 3.1335333 2.6596758 0.995794727
C4 C 3.1913501 2.7129054 0.991559334
C5 C 3.2820007 2.7459965 0.8402578
C6 C 3.2233508 2.7089019 0.8318171
N1 N 3.0549696 2.5708837 0.91068052
N2 N 3.050763 2.599934 1.09272751
H1 H 3.1202345 2.5989244 0.7290026
H2 H 3.1078387 2.6845275 1.2654433
H5 H 3.3038716 2.7432603 0.7310814
H6 H 3.2051373 2.6808133 0.716872
C7 C 3.3375583 2.8137094 1.00632297
C1 C 3.3938755 2.8921939 1.1492272
C2 C 3.400682 2.8451895 0.854669
C3 C 3.3664667 2.8403242 1.004205273
C4 C 3.3086499 2.7870946 1.008440666
C5 C 3.2179993 2.7540035 1.1597422
C6 C 3.2766492 2.7910981 1.1681829
H1 H 3.3797655 2.9010756 1.2709974
H2 H 3.3921613 2.8154725 0.7345567
H5 H 3.1961284 2.7567397 1.2689186
H6 H 3.2948627 2.8191867 1.283128
N2 N 3.050763 2.400066 0.59272751
C7 C 3.1624417 2.6862906 1.99367703
C1 C 3.1061245 2.6078061 1.8507728
C2 C 3.099318 2.6548105 2.145331
C3 C 3.1335333 2.6596758 1.995794727
C4 C 3.1913501 2.7129054 1.991559334
C5 C 3.2820007 2.7459965 1.8402578
C6 C 3.2233508 2.7089019 1.8318171
N1 N 3.0549696 2.5708837 1.91068052
N2 N 3.050763 2.599934 2.09272751
H1 H 3.1202345 2.5989244 1.7290026
H2 H 3.1078387 2.6845275 2.2654433
H5 H 3.3038716 2.7432603 1.7310814
H6 H 3.2051373 2.6808133 1.716872
C7 C 3.3375583 2.8137094 2.00632297
C1 C 3.3938755 2.8921939 2.1492272
C2 C 3.400682 2.8451895 1.854669
C3 C 3.3664667 2.8403242 2.004205273
C4 C 3.3086499 2.7870946 2.008440666
C5 C 3.2179993 2.7540035 2.1597422
C6 C 3.2766492 2.7910981 2.1681829
H1 H 3.3797655 2.9010756 2.2709974
H2 H 3.3921613 2.8154725 1.7345567
H5 H 3.1961284 2.7567397 2.2689186
H6 H 3.2948627 2.8191867 2.283128
N2 N 3.050763 2.400066 1.59272751
C7 C 3.1624417 2.6862906 2.99367703
C1 C 3.1061245 2.6078061 2.8507728
C2 C 3.099318 2.6548105 3.145331
C3 C 3.1335333 2.6596758 2.995794727
C4 C 3.1913501 2.7129054 2.991559334
C5 C 3.2820007 2.7459965 2.8402578
C6 C 3.2233508 2.7089019 2.8318171
N1 N 3.0549696 2.5708837 2.91068052
N2 N 3.050763 2.599934 3.09272751
H1 H 3.1202345 2.5989244 2.7290026
H2 H 3.1078387 2.6845275 3.2654433
H5 H 3.3038716 2.7432603 2.7310814
H6 H 3.2051373 2.6808133 2.716872
C7 C 3.3375583 2.8137094 3.00632297
C1 C 3.3938755 2.8921939 3.1492272
C2 C 3.400682 2.8451895 2.854669
C3 C 3.3664667 2.8403242 3.004205273
C4 C 3.3086499 2.7870946 3.008440666
C5 C 3.2179993 2.7540035 3.1597422
C6 C 3.2766492 2.7910981 3.1681829
H1 H 3.3797655 2.9010756 3.2709974
H2 H 3.3921613 2.8154725 2.7345567
H5 H 3.1961284 2.7567397 3.2689186
H6 H 3.2948627 2.8191867 3.283128
N2 N 3.050763 2.400066 2.59272751
C7 C 3.1624417 2.6862906 3.99367703
C1 C 3.1061245 2.6078061 3.8507728
C2 C 3.099318 2.6548105 4.145331
C3 C 3.1335333 2.6596758 3.995794727
C4 C 3.1913501 2.7129054 3.991559334
C5 C 3.2820007 2.7459965 3.8402578
C6 C 3.2233508 2.7089019 3.8318171
N1 N 3.0549696 2.5708837 3.91068052
N2 N 3.050763 2.599934 4.09272751
H1 H 3.1202345 2.5989244 3.7290026
H2 H 3.1078387 2.6845275 4.2654433
H5 H 3.3038716 2.7432603 3.7310814
H6 H 3.2051373 2.6808133 3.716872
C7 C 3.3375583 2.8137094 4.00632297
C1 C 3.3938755 2.8921939 4.1492272
C2 C 3.400682 2.8451895 3.854669
C3 C 3.3664667 2.8403242 4.004205273
C4 C 3.3086499 2.7870946 4.008440666
C5 C 3.2179993 2.7540035 4.1597422
C6 C 3.2766492 2.7910981 4.1681829
N1 N 3.4450304 2.9291163 4.08931948
H1 H 3.3797655 2.9010756 4.2709974
H2 H 3.3921613 2.8154725 3.7345567
H5 H 3.1961284 2.7567397 4.2689186
H6 H 3.2948627 2.8191867 4.283128
N2 N 3.050763 2.400066 3.59272751
C7 C 3.1624417 3.6862906 0.99367703
C1 C 3.1061245 3.6078061 0.8507728
C2 C 3.099318 3.6548105 1.145331
C3 C 3.1335333 3.6596758 0.995794727
C4 C 3.1913501 3.7129054 0.991559334
C5 C 3.2820007 3.7459965 0.8402578
C6 C 3.2233508 3.7089019 0.8318171
N1 N 3.0549696 3.5708837 0.91068052
N2 N 3.050763 3.599934 1.09272751
H1 H 3.1202345 3.5989244 0.7290026
H2 H 3.1078387 3.6845275 1.2654433
H5 H 3.3038716 3.7432603 0.7310814
H6 H 3.2051373 3.6808133 0.716872
C7 C 3.3375583 3.8137094 1.00632297
C1 C 3.3938755 3.8921939 1.1492272
C2 C 3.400682 3.8451895 0.854669
C3 C 3.3664667 3.8403242 1.004205273
C4 C 3.3086499 3.7870946 1.008440666
C5 C 3.2179993 3.7540035 1.1597422
C6 C 3.2766492 3.7910981 1.1681829
N2 N 3.449237 3.900066 0.90727249
H1 H 3.3797655 3.9010756 1.2709974
H2 H 3.3921613 3.8154725 0.7345567
H5 H 3.1961284 3.7567397 1.2689186
H6 H 3.2948627 3.8191867 1.283128
N2 N 3.050763 3.400066 0.59272751
C7 C 3.1624417 3.6862906 1.99367703
C1 C 3.1061245 3.6078061 1.8507728
C2 C 3.099318 3.6548105 2.145331
C3 C 3.1335333 3.6596758 1.995794727
C4 C 3.1913501 3.7129054 1.991559334
C5 C 3.2820007 3.7459965 1.8402578
C6 C 3.2233508 3.7089019 1.8318171
N1 N 3.0549696 3.5708837 1.91068052
N2 N 3.050763 3.599934 2.09272751
H1 H 3.1202345 3.5989244 1.7290026
H2 H 3.1078387 3.6845275 2.2654433
H5 H 3.3038716 3.7432603 1.7310814
H6 H 3.2051373 3.6808133 1.716872
C7 C 3.3375583 3.8137094 2.00632297
C1 C 3.3938755 3.8921939 2.1492272
C2 C 3.400682 3.8451895 1.854669
C3 C 3.3664667 3.8403242 2.004205273
C4 C 3.3086499 3.7870946 2.008440666
C5 C 3.2179993 3.7540035 2.1597422
C6 C 3.2766492 3.7910981 2.1681829
N2 N 3.449237 3.900066 1.90727249
H1 H 3.3797655 3.9010756 2.2709974
H2 H 3.3921613 3.8154725 1.7345567
H5 H 3.1961284 3.7567397 2.2689186
H6 H 3.2948627 3.8191867 2.283128
N2 N 3.050763 3.400066 1.59272751
C7 C 3.1624417 3.6862906 2.99367703
C1 C 3.1061245 3.6078061 2.8507728
C2 C 3.099318 3.6548105 3.145331
C3 C 3.1335333 3.6596758 2.995794727
C4 C 3.1913501 3.7129054 2.991559334
C5 C 3.2820007 3.7459965 2.8402578
C6 C 3.2233508 3.7089019 2.8318171
N1 N 3.0549696 3.5708837 2.91068052
N2 N 3.050763 3.599934 3.09272751
H1 H 3.1202345 3.5989244 2.7290026
H2 H 3.1078387 3.6845275 3.2654433
H5 H 3.3038716 3.7432603 2.7310814
H6 H 3.2051373 3.6808133 2.716872
C7 C 3.3375583 3.8137094 3.00632297
C1 C 3.3938755 3.8921939 3.1492272
C2 C 3.400682 3.8451895 2.854669
C3 C 3.3664667 3.8403242 3.004205273
C4 C 3.3086499 3.7870946 3.008440666
C5 C 3.2179993 3.7540035 3.1597422
C6 C 3.2766492 3.7910981 3.1681829
N2 N 3.449237 3.900066 2.90727249
H1 H 3.3797655 3.9010756 3.2709974
H2 H 3.3921613 3.8154725 2.7345567
H5 H 3.1961284 3.7567397 3.2689186
H6 H 3.2948627 3.8191867 3.283128
N2 N 3.050763 3.400066 2.59272751
C7 C 3.1624417 3.6862906 3.99367703
C1 C 3.1061245 3.6078061 3.8507728
C2 C 3.099318 3.6548105 4.145331
C3 C 3.1335333 3.6596758 3.995794727
C4 C 3.1913501 3.7129054 3.991559334
C5 C 3.2820007 3.7459965 3.8402578
C6 C 3.2233508 3.7089019 3.8318171
N1 N 3.0549696 3.5708837 3.91068052
N2 N 3.050763 3.599934 4.09272751
H1 H 3.1202345 3.5989244 3.7290026
H2 H 3.1078387 3.6845275 4.2654433
H5 H 3.3038716 3.7432603 3.7310814
H6 H 3.2051373 3.6808133 3.716872
C7 C 3.3375583 3.8137094 4.00632297
C1 C 3.3938755 3.8921939 4.1492272
C2 C 3.400682 3.8451895 3.854669
C3 C 3.3664667 3.8403242 4.004205273
C4 C 3.3086499 3.7870946 4.008440666
C5 C 3.2179993 3.7540035 4.1597422
C6 C 3.2766492 3.7910981 4.1681829
N1 N 3.4450304 3.9291163 4.08931948
N2 N 3.449237 3.900066 3.90727249
H1 H 3.3797655 3.9010756 4.2709974
H2 H 3.3921613 3.8154725 3.7345567
H5 H 3.1961284 3.7567397 4.2689186
H6 H 3.2948627 3.8191867 4.283128
N2 N 3.050763 3.400066 3.59272751
Co Co 3.5 4.01922(60) 4.25
C7 C 0.1624417 0.3137094 0.49367703
C1 C 0.1061245 0.3921939 0.3507728
C2 C 0.099318 0.3451895 0.645331
C3 C 0.1335333 0.3403242 0.495794727
C4 C 0.1913501 0.2870946 0.491559334
C5 C 0.2820007 0.2540035 0.3402578
C6 C 0.2233508 0.2910981 0.3318171
N1 N 0.0549696 0.4291163 0.41068052
H1 H 0.1202345 0.4010756 0.2290026
H2 H 0.1078387 0.3154725 0.7654433
H5 H 0.3038716 0.2567397 0.2310814
H6 H 0.2051373 0.3191867 0.216872
C7 C 0.3375583 0.1862906 0.50632297
C1 C 0.3938755 0.1078061 0.6492272
C2 C 0.400682 0.1548105 0.354669
C3 C 0.3664667 0.1596758 0.504205273
C4 C 0.3086499 0.2129054 0.508440666
C5 C 0.2179993 0.2459965 0.6597422
C6 C 0.2766492 0.2089019 0.6681829
N2 N 0.449237 0.099934 0.40727249
H1 H 0.3797655 0.0989244 0.7709974
H2 H 0.3921613 0.1845275 0.2345567
H5 H 0.1961284 0.2432603 0.7689186
H6 H 0.2948627 0.1808133 0.783128
Co Co 0.0 0.51922(60) 0.25
N1 N -0.0549696 0.4291163 0.08931948
N2 N -0.050763 0.599934 0.40727249
N2 N 0.050763 0.599934 0.09272751
Co Co 0.5 0.01922(60) 0.25
C7 C 0.1624417 0.3137094 1.49367703
C1 C 0.1061245 0.3921939 1.3507728
C2 C 0.099318 0.3451895 1.645331
C3 C 0.1335333 0.3403242 1.495794727
C4 C 0.1913501 0.2870946 1.491559334
C5 C 0.2820007 0.2540035 1.3402578
C6 C 0.2233508 0.2910981 1.3318171
N1 N 0.0549696 0.4291163 1.41068052
H1 H 0.1202345 0.4010756 1.2290026
H2 H 0.1078387 0.3154725 1.7654433
H5 H 0.3038716 0.2567397 1.2310814
H6 H 0.2051373 0.3191867 1.216872
C7 C 0.3375583 0.1862906 1.50632297
C1 C 0.3938755 0.1078061 1.6492272
C2 C 0.400682 0.1548105 1.354669
C3 C 0.3664667 0.1596758 1.504205273
C4 C 0.3086499 0.2129054 1.508440666
C5 C 0.2179993 0.2459965 1.6597422
C6 C 0.2766492 0.2089019 1.6681829
N2 N 0.449237 0.099934 1.40727249
H1 H 0.3797655 0.0989244 1.7709974
H2 H 0.3921613 0.1845275 1.2345567
H5 H 0.1961284 0.2432603 1.7689186
H6 H 0.2948627 0.1808133 1.783128
N1 N -0.0549696 0.4291163 1.08931948
N2 N -0.050763 0.599934 1.40727249
C7 C 0.1624417 0.3137094 2.49367703
C1 C 0.1061245 0.3921939 2.3507728
C2 C 0.099318 0.3451895 2.645331
C3 C 0.1335333 0.3403242 2.495794727
C4 C 0.1913501 0.2870946 2.491559334
C5 C 0.2820007 0.2540035 2.3402578
C6 C 0.2233508 0.2910981 2.3318171
N1 N 0.0549696 0.4291163 2.41068052
H1 H 0.1202345 0.4010756 2.2290026
H2 H 0.1078387 0.3154725 2.7654433
H5 H 0.3038716 0.2567397 2.2310814
H6 H 0.2051373 0.3191867 2.216872
C7 C 0.3375583 0.1862906 2.50632297
C1 C 0.3938755 0.1078061 2.6492272
C2 C 0.400682 0.1548105 2.354669
C3 C 0.3664667 0.1596758 2.504205273
C4 C 0.3086499 0.2129054 2.508440666
C5 C 0.2179993 0.2459965 2.6597422
C6 C 0.2766492 0.2089019 2.6681829
N2 N 0.449237 0.099934 2.40727249
H1 H 0.3797655 0.0989244 2.7709974
H2 H 0.3921613 0.1845275 2.2345567
H5 H 0.1961284 0.2432603 2.7689186
H6 H 0.2948627 0.1808133 2.783128
N1 N -0.0549696 0.4291163 2.08931948
N2 N -0.050763 0.599934 2.40727249
C7 C 0.1624417 0.3137094 3.49367703
C1 C 0.1061245 0.3921939 3.3507728
C2 C 0.099318 0.3451895 3.645331
C3 C 0.1335333 0.3403242 3.495794727
C4 C 0.1913501 0.2870946 3.491559334
C5 C 0.2820007 0.2540035 3.3402578
C6 C 0.2233508 0.2910981 3.3318171
N1 N 0.0549696 0.4291163 3.41068052
H1 H 0.1202345 0.4010756 3.2290026
H2 H 0.1078387 0.3154725 3.7654433
H5 H 0.3038716 0.2567397 3.2310814
H6 H 0.2051373 0.3191867 3.216872
C7 C 0.3375583 0.1862906 3.50632297
C1 C 0.3938755 0.1078061 3.6492272
C2 C 0.400682 0.1548105 3.354669
C3 C 0.3664667 0.1596758 3.504205273
C4 C 0.3086499 0.2129054 3.508440666
C5 C 0.2179993 0.2459965 3.6597422
C6 C 0.2766492 0.2089019 3.6681829
N2 N 0.449237 0.099934 3.40727249
H1 H 0.3797655 0.0989244 3.7709974
H2 H 0.3921613 0.1845275 3.2345567
H5 H 0.1961284 0.2432603 3.7689186
H6 H 0.2948627 0.1808133 3.783128
N1 N -0.0549696 0.4291163 3.08931948
N2 N -0.050763 0.599934 3.40727249
C7 C 0.1624417 1.3137094 0.49367703
C1 C 0.1061245 1.3921939 0.3507728
C2 C 0.099318 1.3451895 0.645331
C3 C 0.1335333 1.3403242 0.495794727
C4 C 0.1913501 1.2870946 0.491559334
C5 C 0.2820007 1.2540035 0.3402578
C6 C 0.2233508 1.2910981 0.3318171
N1 N 0.0549696 1.4291163 0.41068052
H1 H 0.1202345 1.4010756 0.2290026
H2 H 0.1078387 1.3154725 0.7654433
H5 H 0.3038716 1.2567397 0.2310814
H6 H 0.2051373 1.3191867 0.216872
C7 C 0.3375583 1.1862906 0.50632297
C1 C 0.3938755 1.1078061 0.6492272
C2 C 0.400682 1.1548105 0.354669
C3 C 0.3664667 1.1596758 0.504205273
C4 C 0.3086499 1.2129054 0.508440666
C5 C 0.2179993 1.2459965 0.6597422
C6 C 0.2766492 1.2089019 0.6681829
H1 H 0.3797655 1.0989244 0.7709974
H2 H 0.3921613 1.1845275 0.2345567
H5 H 0.1961284 1.2432603 0.7689186
H6 H 0.2948627 1.1808133 0.783128
Co Co 0.0 1.51922(60) 0.25
N1 N -0.0549696 1.4291163 0.08931948
N2 N -0.050763 1.599934 0.40727249
N2 N 0.050763 1.599934 0.09272751
C7 C 0.1624417 1.3137094 1.49367703
C1 C 0.1061245 1.3921939 1.3507728
C2 C 0.099318 1.3451895 1.645331
C3 C 0.1335333 1.3403242 1.495794727
C4 C 0.1913501 1.2870946 1.491559334
C5 C 0.2820007 1.2540035 1.3402578
C6 C 0.2233508 1.2910981 1.3318171
N1 N 0.0549696 1.4291163 1.41068052
H1 H 0.1202345 1.4010756 1.2290026
H2 H 0.1078387 1.3154725 1.7654433
H5 H 0.3038716 1.2567397 1.2310814
H6 H 0.2051373 1.3191867 1.216872
C7 C 0.3375583 1.1862906 1.50632297
C1 C 0.3938755 1.1078061 1.6492272
C2 C 0.400682 1.1548105 1.354669
C3 C 0.3664667 1.1596758 1.504205273
C4 C 0.3086499 1.2129054 1.508440666
C5 C 0.2179993 1.2459965 1.6597422
C6 C 0.2766492 1.2089019 1.6681829
H1 H 0.3797655 1.0989244 1.7709974
H2 H 0.3921613 1.1845275 1.2345567
H5 H 0.1961284 1.2432603 1.7689186
H6 H 0.2948627 1.1808133 1.783128
N1 N -0.0549696 1.4291163 1.08931948
N2 N -0.050763 1.599934 1.40727249
C7 C 0.1624417 1.3137094 2.49367703
C1 C 0.1061245 1.3921939 2.3507728
C2 C 0.099318 1.3451895 2.645331
C3 C 0.1335333 1.3403242 2.495794727
C4 C 0.1913501 1.2870946 2.491559334
C5 C 0.2820007 1.2540035 2.3402578
C6 C 0.2233508 1.2910981 2.3318171
N1 N 0.0549696 1.4291163 2.41068052
H1 H 0.1202345 1.4010756 2.2290026
H2 H 0.1078387 1.3154725 2.7654433
H5 H 0.3038716 1.2567397 2.2310814
H6 H 0.2051373 1.3191867 2.216872
C7 C 0.3375583 1.1862906 2.50632297
C1 C 0.3938755 1.1078061 2.6492272
C2 C 0.400682 1.1548105 2.354669
C3 C 0.3664667 1.1596758 2.504205273
C4 C 0.3086499 1.2129054 2.508440666
C5 C 0.2179993 1.2459965 2.6597422
C6 C 0.2766492 1.2089019 2.6681829
H1 H 0.3797655 1.0989244 2.7709974
H2 H 0.3921613 1.1845275 2.2345567
H5 H 0.1961284 1.2432603 2.7689186
H6 H 0.2948627 1.1808133 2.783128
N1 N -0.0549696 1.4291163 2.08931948
N2 N -0.050763 1.599934 2.40727249
C7 C 0.1624417 1.3137094 3.49367703
C1 C 0.1061245 1.3921939 3.3507728
C2 C 0.099318 1.3451895 3.645331
C3 C 0.1335333 1.3403242 3.495794727
C4 C 0.1913501 1.2870946 3.491559334
C5 C 0.2820007 1.2540035 3.3402578
C6 C 0.2233508 1.2910981 3.3318171
N1 N 0.0549696 1.4291163 3.41068052
H1 H 0.1202345 1.4010756 3.2290026
H2 H 0.1078387 1.3154725 3.7654433
H5 H 0.3038716 1.2567397 3.2310814
H6 H 0.2051373 1.3191867 3.216872
C7 C 0.3375583 1.1862906 3.50632297
C1 C 0.3938755 1.1078061 3.6492272
C2 C 0.400682 1.1548105 3.354669
C3 C 0.3664667 1.1596758 3.504205273
C4 C 0.3086499 1.2129054 3.508440666
C5 C 0.2179993 1.2459965 3.6597422
C6 C 0.2766492 1.2089019 3.6681829
H1 H 0.3797655 1.0989244 3.7709974
H2 H 0.3921613 1.1845275 3.2345567
H5 H 0.1961284 1.2432603 3.7689186
H6 H 0.2948627 1.1808133 3.783128
N1 N -0.0549696 1.4291163 3.08931948
N2 N -0.050763 1.599934 3.40727249
C7 C 0.1624417 2.3137094 0.49367703
C1 C 0.1061245 2.3921939 0.3507728
C2 C 0.099318 2.3451895 0.645331
C3 C 0.1335333 2.3403242 0.495794727
C4 C 0.1913501 2.2870946 0.491559334
C5 C 0.2820007 2.2540035 0.3402578
C6 C 0.2233508 2.2910981 0.3318171
N1 N 0.0549696 2.4291163 0.41068052
H1 H 0.1202345 2.4010756 0.2290026
H2 H 0.1078387 2.3154725 0.7654433
H5 H 0.3038716 2.2567397 0.2310814
H6 H 0.2051373 2.3191867 0.216872
C7 C 0.3375583 2.1862906 0.50632297
C1 C 0.3938755 2.1078061 0.6492272
C2 C 0.400682 2.1548105 0.354669
C3 C 0.3664667 2.1596758 0.504205273
C4 C 0.3086499 2.2129054 0.508440666
C5 C 0.2179993 2.2459965 0.6597422
C6 C 0.2766492 2.2089019 0.6681829
H1 H 0.3797655 2.0989244 0.7709974
H2 H 0.3921613 2.1845275 0.2345567
H5 H 0.1961284 2.2432603 0.7689186
H6 H 0.2948627 2.1808133 0.783128
Co Co 0.0 2.51922(60) 0.25
N1 N -0.0549696 2.4291163 0.08931948
N2 N -0.050763 2.599934 0.40727249
N2 N 0.050763 2.599934 0.09272751
C7 C 0.1624417 2.3137094 1.49367703
C1 C 0.1061245 2.3921939 1.3507728
C2 C 0.099318 2.3451895 1.645331
C3 C 0.1335333 2.3403242 1.495794727
C4 C 0.1913501 2.2870946 1.491559334
C5 C 0.2820007 2.2540035 1.3402578
C6 C 0.2233508 2.2910981 1.3318171
N1 N 0.0549696 2.4291163 1.41068052
H1 H 0.1202345 2.4010756 1.2290026
H2 H 0.1078387 2.3154725 1.7654433
H5 H 0.3038716 2.2567397 1.2310814
H6 H 0.2051373 2.3191867 1.216872
C7 C 0.3375583 2.1862906 1.50632297
C1 C 0.3938755 2.1078061 1.6492272
C2 C 0.400682 2.1548105 1.354669
C3 C 0.3664667 2.1596758 1.504205273
C4 C 0.3086499 2.2129054 1.508440666
C5 C 0.2179993 2.2459965 1.6597422
C6 C 0.2766492 2.2089019 1.6681829
H1 H 0.3797655 2.0989244 1.7709974
H2 H 0.3921613 2.1845275 1.2345567
H5 H 0.1961284 2.2432603 1.7689186
H6 H 0.2948627 2.1808133 1.783128
N1 N -0.0549696 2.4291163 1.08931948
N2 N -0.050763 2.599934 1.40727249
C7 C 0.1624417 2.3137094 2.49367703
C1 C 0.1061245 2.3921939 2.3507728
C2 C 0.099318 2.3451895 2.645331
C3 C 0.1335333 2.3403242 2.495794727
C4 C 0.1913501 2.2870946 2.491559334
C5 C 0.2820007 2.2540035 2.3402578
C6 C 0.2233508 2.2910981 2.3318171
N1 N 0.0549696 2.4291163 2.41068052
H1 H 0.1202345 2.4010756 2.2290026
H2 H 0.1078387 2.3154725 2.7654433
H5 H 0.3038716 2.2567397 2.2310814
H6 H 0.2051373 2.3191867 2.216872
C7 C 0.3375583 2.1862906 2.50632297
C1 C 0.3938755 2.1078061 2.6492272
C2 C 0.400682 2.1548105 2.354669
C3 C 0.3664667 2.1596758 2.504205273
C4 C 0.3086499 2.2129054 2.508440666
C5 C 0.2179993 2.2459965 2.6597422
C6 C 0.2766492 2.2089019 2.6681829
H1 H 0.3797655 2.0989244 2.7709974
H2 H 0.3921613 2.1845275 2.2345567
H5 H 0.1961284 2.2432603 2.7689186
H6 H 0.2948627 2.1808133 2.783128
N1 N -0.0549696 2.4291163 2.08931948
N2 N -0.050763 2.599934 2.40727249
C7 C 0.1624417 2.3137094 3.49367703
C1 C 0.1061245 2.3921939 3.3507728
C2 C 0.099318 2.3451895 3.645331
C3 C 0.1335333 2.3403242 3.495794727
C4 C 0.1913501 2.2870946 3.491559334
C5 C 0.2820007 2.2540035 3.3402578
C6 C 0.2233508 2.2910981 3.3318171
N1 N 0.0549696 2.4291163 3.41068052
H1 H 0.1202345 2.4010756 3.2290026
H2 H 0.1078387 2.3154725 3.7654433
H5 H 0.3038716 2.2567397 3.2310814
H6 H 0.2051373 2.3191867 3.216872
C7 C 0.3375583 2.1862906 3.50632297
C1 C 0.3938755 2.1078061 3.6492272
C2 C 0.400682 2.1548105 3.354669
C3 C 0.3664667 2.1596758 3.504205273
C4 C 0.3086499 2.2129054 3.508440666
C5 C 0.2179993 2.2459965 3.6597422
C6 C 0.2766492 2.2089019 3.6681829
H1 H 0.3797655 2.0989244 3.7709974
H2 H 0.3921613 2.1845275 3.2345567
H5 H 0.1961284 2.2432603 3.7689186
H6 H 0.2948627 2.1808133 3.783128
N1 N -0.0549696 2.4291163 3.08931948
N2 N -0.050763 2.599934 3.40727249
C7 C 0.1624417 3.3137094 0.49367703
C1 C 0.1061245 3.3921939 0.3507728
C2 C 0.099318 3.3451895 0.645331
C3 C 0.1335333 3.3403242 0.495794727
C4 C 0.1913501 3.2870946 0.491559334
C5 C 0.2820007 3.2540035 0.3402578
C6 C 0.2233508 3.2910981 0.3318171
N1 N 0.0549696 3.4291163 0.41068052
H1 H 0.1202345 3.4010756 0.2290026
H2 H 0.1078387 3.3154725 0.7654433
H5 H 0.3038716 3.2567397 0.2310814
H6 H 0.2051373 3.3191867 0.216872
C7 C 0.3375583 3.1862906 0.50632297
C1 C 0.3938755 3.1078061 0.6492272
C2 C 0.400682 3.1548105 0.354669
C3 C 0.3664667 3.1596758 0.504205273
C4 C 0.3086499 3.2129054 0.508440666
C5 C 0.2179993 3.2459965 0.6597422
C6 C 0.2766492 3.2089019 0.6681829
H1 H 0.3797655 3.0989244 0.7709974
H2 H 0.3921613 3.1845275 0.2345567
H5 H 0.1961284 3.2432603 0.7689186
H6 H 0.2948627 3.1808133 0.783128
Co Co 0.0 3.51922(60) 0.25
N1 N -0.0549696 3.4291163 0.08931948
N2 N -0.050763 3.599934 0.40727249
N2 N 0.050763 3.599934 0.09272751
C7 C 0.1624417 3.3137094 1.49367703
C1 C 0.1061245 3.3921939 1.3507728
C2 C 0.099318 3.3451895 1.645331
C3 C 0.1335333 3.3403242 1.495794727
C4 C 0.1913501 3.2870946 1.491559334
C5 C 0.2820007 3.2540035 1.3402578
C6 C 0.2233508 3.2910981 1.3318171
N1 N 0.0549696 3.4291163 1.41068052
H1 H 0.1202345 3.4010756 1.2290026
H2 H 0.1078387 3.3154725 1.7654433
H5 H 0.3038716 3.2567397 1.2310814
H6 H 0.2051373 3.3191867 1.216872
C7 C 0.3375583 3.1862906 1.50632297
C1 C 0.3938755 3.1078061 1.6492272
C2 C 0.400682 3.1548105 1.354669
C3 C 0.3664667 3.1596758 1.504205273
C4 C 0.3086499 3.2129054 1.508440666
C5 C 0.2179993 3.2459965 1.6597422
C6 C 0.2766492 3.2089019 1.6681829
H1 H 0.3797655 3.0989244 1.7709974
H2 H 0.3921613 3.1845275 1.2345567
H5 H 0.1961284 3.2432603 1.7689186
H6 H 0.2948627 3.1808133 1.783128
N1 N -0.0549696 3.4291163 1.08931948
N2 N -0.050763 3.599934 1.40727249
C7 C 0.1624417 3.3137094 2.49367703
C1 C 0.1061245 3.3921939 2.3507728
C2 C 0.099318 3.3451895 2.645331
C3 C 0.1335333 3.3403242 2.495794727
C4 C 0.1913501 3.2870946 2.491559334
C5 C 0.2820007 3.2540035 2.3402578
C6 C 0.2233508 3.2910981 2.3318171
N1 N 0.0549696 3.4291163 2.41068052
H1 H 0.1202345 3.4010756 2.2290026
H2 H 0.1078387 3.3154725 2.7654433
H5 H 0.3038716 3.2567397 2.2310814
H6 H 0.2051373 3.3191867 2.216872
C7 C 0.3375583 3.1862906 2.50632297
C1 C 0.3938755 3.1078061 2.6492272
C2 C 0.400682 3.1548105 2.354669
C3 C 0.3664667 3.1596758 2.504205273
C4 C 0.3086499 3.2129054 2.508440666
C5 C 0.2179993 3.2459965 2.6597422
C6 C 0.2766492 3.2089019 2.6681829
H1 H 0.3797655 3.0989244 2.7709974
H2 H 0.3921613 3.1845275 2.2345567
H5 H 0.1961284 3.2432603 2.7689186
H6 H 0.2948627 3.1808133 2.783128
N1 N -0.0549696 3.4291163 2.08931948
N2 N -0.050763 3.599934 2.40727249
C7 C 0.1624417 3.3137094 3.49367703
C1 C 0.1061245 3.3921939 3.3507728
C2 C 0.099318 3.3451895 3.645331
C3 C 0.1335333 3.3403242 3.495794727
C4 C 0.1913501 3.2870946 3.491559334
C5 C 0.2820007 3.2540035 3.3402578
C6 C 0.2233508 3.2910981 3.3318171
N1 N 0.0549696 3.4291163 3.41068052
H1 H 0.1202345 3.4010756 3.2290026
H2 H 0.1078387 3.3154725 3.7654433
H5 H 0.3038716 3.2567397 3.2310814
H6 H 0.2051373 3.3191867 3.216872
C7 C 0.3375583 3.1862906 3.50632297
C1 C 0.3938755 3.1078061 3.6492272
C2 C 0.400682 3.1548105 3.354669
C3 C 0.3664667 3.1596758 3.504205273
C4 C 0.3086499 3.2129054 3.508440666
C5 C 0.2179993 3.2459965 3.6597422
C6 C 0.2766492 3.2089019 3.6681829
H1 H 0.3797655 3.0989244 3.7709974
H2 H 0.3921613 3.1845275 3.2345567
H5 H 0.1961284 3.2432603 3.7689186
H6 H 0.2948627 3.1808133 3.783128
N1 N -0.0549696 3.4291163 3.08931948
N2 N -0.050763 3.599934 3.40727249
C7 C 1.1624417 0.3137094 0.49367703
C1 C 1.1061245 0.3921939 0.3507728
C2 C 1.099318 0.3451895 0.645331
C3 C 1.1335333 0.3403242 0.495794727
C4 C 1.1913501 0.2870946 0.491559334
C5 C 1.2820007 0.2540035 0.3402578
C6 C 1.2233508 0.2910981 0.3318171
N1 N 1.0549696 0.4291163 0.41068052
H1 H 1.1202345 0.4010756 0.2290026
H2 H 1.1078387 0.3154725 0.7654433
H5 H 1.3038716 0.2567397 0.2310814
H6 H 1.2051373 0.3191867 0.216872
C7 C 1.3375583 0.1862906 0.50632297
C1 C 1.3938755 0.1078061 0.6492272
C2 C 1.400682 0.1548105 0.354669
C3 C 1.3664667 0.1596758 0.504205273
C4 C 1.3086499 0.2129054 0.508440666
C5 C 1.2179993 0.2459965 0.6597422
C6 C 1.2766492 0.2089019 0.6681829
N2 N 1.449237 0.099934 0.40727249
H1 H 1.3797655 0.0989244 0.7709974
H2 H 1.3921613 0.1845275 0.2345567
H5 H 1.1961284 0.2432603 0.7689186
H6 H 1.2948627 0.1808133 0.783128
N1 N 0.9450304 0.4291163 0.08931948
N2 N 1.050763 0.599934 0.09272751
Co Co 1.5 0.01922(60) 0.25
C7 C 1.1624417 0.3137094 1.49367703
C1 C 1.1061245 0.3921939 1.3507728
C2 C 1.099318 0.3451895 1.645331
C3 C 1.1335333 0.3403242 1.495794727
C4 C 1.1913501 0.2870946 1.491559334
C5 C 1.2820007 0.2540035 1.3402578
C6 C 1.2233508 0.2910981 1.3318171
N1 N 1.0549696 0.4291163 1.41068052
H1 H 1.1202345 0.4010756 1.2290026
H2 H 1.1078387 0.3154725 1.7654433
H5 H 1.3038716 0.2567397 1.2310814
H6 H 1.2051373 0.3191867 1.216872
C7 C 1.3375583 0.1862906 1.50632297
C1 C 1.3938755 0.1078061 1.6492272
C2 C 1.400682 0.1548105 1.354669
C3 C 1.3664667 0.1596758 1.504205273
C4 C 1.3086499 0.2129054 1.508440666
C5 C 1.2179993 0.2459965 1.6597422
C6 C 1.2766492 0.2089019 1.6681829
N2 N 1.449237 0.099934 1.40727249
H1 H 1.3797655 0.0989244 1.7709974
H2 H 1.3921613 0.1845275 1.2345567
H5 H 1.1961284 0.2432603 1.7689186
H6 H 1.2948627 0.1808133 1.783128
C7 C 1.1624417 0.3137094 2.49367703
C1 C 1.1061245 0.3921939 2.3507728
C2 C 1.099318 0.3451895 2.645331
C3 C 1.1335333 0.3403242 2.495794727
C4 C 1.1913501 0.2870946 2.491559334
C5 C 1.2820007 0.2540035 2.3402578
C6 C 1.2233508 0.2910981 2.3318171
N1 N 1.0549696 0.4291163 2.41068052
H1 H 1.1202345 0.4010756 2.2290026
H2 H 1.1078387 0.3154725 2.7654433
H5 H 1.3038716 0.2567397 2.2310814
H6 H 1.2051373 0.3191867 2.216872
C7 C 1.3375583 0.1862906 2.50632297
C1 C 1.3938755 0.1078061 2.6492272
C2 C 1.400682 0.1548105 2.354669
C3 C 1.3664667 0.1596758 2.504205273
C4 C 1.3086499 0.2129054 2.508440666
C5 C 1.2179993 0.2459965 2.6597422
C6 C 1.2766492 0.2089019 2.6681829
N2 N 1.449237 0.099934 2.40727249
H1 H 1.3797655 0.0989244 2.7709974
H2 H 1.3921613 0.1845275 2.2345567
H5 H 1.1961284 0.2432603 2.7689186
H6 H 1.2948627 0.1808133 2.783128
C7 C 1.1624417 0.3137094 3.49367703
C1 C 1.1061245 0.3921939 3.3507728
C2 C 1.099318 0.3451895 3.645331
C3 C 1.1335333 0.3403242 3.495794727
C4 C 1.1913501 0.2870946 3.491559334
C5 C 1.2820007 0.2540035 3.3402578
C6 C 1.2233508 0.2910981 3.3318171
N1 N 1.0549696 0.4291163 3.41068052
H1 H 1.1202345 0.4010756 3.2290026
H2 H 1.1078387 0.3154725 3.7654433
H5 H 1.3038716 0.2567397 3.2310814
H6 H 1.2051373 0.3191867 3.216872
C7 C 1.3375583 0.1862906 3.50632297
C1 C 1.3938755 0.1078061 3.6492272
C2 C 1.400682 0.1548105 3.354669
C3 C 1.3664667 0.1596758 3.504205273
C4 C 1.3086499 0.2129054 3.508440666
C5 C 1.2179993 0.2459965 3.6597422
C6 C 1.2766492 0.2089019 3.6681829
N2 N 1.449237 0.099934 3.40727249
H1 H 1.3797655 0.0989244 3.7709974
H2 H 1.3921613 0.1845275 3.2345567
H5 H 1.1961284 0.2432603 3.7689186
H6 H 1.2948627 0.1808133 3.783128
C7 C 1.1624417 1.3137094 0.49367703
C1 C 1.1061245 1.3921939 0.3507728
C2 C 1.099318 1.3451895 0.645331
C3 C 1.1335333 1.3403242 0.495794727
C4 C 1.1913501 1.2870946 0.491559334
C5 C 1.2820007 1.2540035 0.3402578
C6 C 1.2233508 1.2910981 0.3318171
N1 N 1.0549696 1.4291163 0.41068052
H1 H 1.1202345 1.4010756 0.2290026
H2 H 1.1078387 1.3154725 0.7654433
H5 H 1.3038716 1.2567397 0.2310814
H6 H 1.2051373 1.3191867 0.216872
C7 C 1.3375583 1.1862906 0.50632297
C1 C 1.3938755 1.1078061 0.6492272
C2 C 1.400682 1.1548105 0.354669
C3 C 1.3664667 1.1596758 0.504205273
C4 C 1.3086499 1.2129054 0.508440666
C5 C 1.2179993 1.2459965 0.6597422
C6 C 1.2766492 1.2089019 0.6681829
H1 H 1.3797655 1.0989244 0.7709974
H2 H 1.3921613 1.1845275 0.2345567
H5 H 1.1961284 1.2432603 0.7689186
H6 H 1.2948627 1.1808133 0.783128
N1 N 0.9450304 1.4291163 0.08931948
N2 N 1.050763 1.599934 0.09272751
C7 C 1.1624417 1.3137094 1.49367703
C1 C 1.1061245 1.3921939 1.3507728
C2 C 1.099318 1.3451895 1.645331
C3 C 1.1335333 1.3403242 1.495794727
C4 C 1.1913501 1.2870946 1.491559334
C5 C 1.2820007 1.2540035 1.3402578
C6 C 1.2233508 1.2910981 1.3318171
N1 N 1.0549696 1.4291163 1.41068052
H1 H 1.1202345 1.4010756 1.2290026
H2 H 1.1078387 1.3154725 1.7654433
H5 H 1.3038716 1.2567397 1.2310814
H6 H 1.2051373 1.3191867 1.216872
C7 C 1.3375583 1.1862906 1.50632297
C1 C 1.3938755 1.1078061 1.6492272
C2 C 1.400682 1.1548105 1.354669
C3 C 1.3664667 1.1596758 1.504205273
C4 C 1.3086499 1.2129054 1.508440666
C5 C 1.2179993 1.2459965 1.6597422
C6 C 1.2766492 1.2089019 1.6681829
H1 H 1.3797655 1.0989244 1.7709974
H2 H 1.3921613 1.1845275 1.2345567
H5 H 1.1961284 1.2432603 1.7689186
H6 H 1.2948627 1.1808133 1.783128
C7 C 1.1624417 1.3137094 2.49367703
C1 C 1.1061245 1.3921939 2.3507728
C2 C 1.099318 1.3451895 2.645331
C3 C 1.1335333 1.3403242 2.495794727
C4 C 1.1913501 1.2870946 2.491559334
C5 C 1.2820007 1.2540035 2.3402578
C6 C 1.2233508 1.2910981 2.3318171
N1 N 1.0549696 1.4291163 2.41068052
H1 H 1.1202345 1.4010756 2.2290026
H2 H 1.1078387 1.3154725 2.7654433
H5 H 1.3038716 1.2567397 2.2310814
H6 H 1.2051373 1.3191867 2.216872
C7 C 1.3375583 1.1862906 2.50632297
C1 C 1.3938755 1.1078061 2.6492272
C2 C 1.400682 1.1548105 2.354669
C3 C 1.3664667 1.1596758 2.504205273
C4 C 1.3086499 1.2129054 2.508440666
C5 C 1.2179993 1.2459965 2.6597422
C6 C 1.2766492 1.2089019 2.6681829
H1 H 1.3797655 1.0989244 2.7709974
H2 H 1.3921613 1.1845275 2.2345567
H5 H 1.1961284 1.2432603 2.7689186
H6 H 1.2948627 1.1808133 2.783128
C7 C 1.1624417 1.3137094 3.49367703
C1 C 1.1061245 1.3921939 3.3507728
C2 C 1.099318 1.3451895 3.645331
C3 C 1.1335333 1.3403242 3.495794727
C4 C 1.1913501 1.2870946 3.491559334
C5 C 1.2820007 1.2540035 3.3402578
C6 C 1.2233508 1.2910981 3.3318171
N1 N 1.0549696 1.4291163 3.41068052
H1 H 1.1202345 1.4010756 3.2290026
H2 H 1.1078387 1.3154725 3.7654433
H5 H 1.3038716 1.2567397 3.2310814
H6 H 1.2051373 1.3191867 3.216872
C7 C 1.3375583 1.1862906 3.50632297
C1 C 1.3938755 1.1078061 3.6492272
C2 C 1.400682 1.1548105 3.354669
C3 C 1.3664667 1.1596758 3.504205273
C4 C 1.3086499 1.2129054 3.508440666
C5 C 1.2179993 1.2459965 3.6597422
C6 C 1.2766492 1.2089019 3.6681829
H1 H 1.3797655 1.0989244 3.7709974
H2 H 1.3921613 1.1845275 3.2345567
H5 H 1.1961284 1.2432603 3.7689186
H6 H 1.2948627 1.1808133 3.783128
C7 C 1.1624417 2.3137094 0.49367703
C1 C 1.1061245 2.3921939 0.3507728
C2 C 1.099318 2.3451895 0.645331
C3 C 1.1335333 2.3403242 0.495794727
C4 C 1.1913501 2.2870946 0.491559334
C5 C 1.2820007 2.2540035 0.3402578
C6 C 1.2233508 2.2910981 0.3318171
N1 N 1.0549696 2.4291163 0.41068052
H1 H 1.1202345 2.4010756 0.2290026
H2 H 1.1078387 2.3154725 0.7654433
H5 H 1.3038716 2.2567397 0.2310814
H6 H 1.2051373 2.3191867 0.216872
C7 C 1.3375583 2.1862906 0.50632297
C1 C 1.3938755 2.1078061 0.6492272
C2 C 1.400682 2.1548105 0.354669
C3 C 1.3664667 2.1596758 0.504205273
C4 C 1.3086499 2.2129054 0.508440666
C5 C 1.2179993 2.2459965 0.6597422
C6 C 1.2766492 2.2089019 0.6681829
H1 H 1.3797655 2.0989244 0.7709974
H2 H 1.3921613 2.1845275 0.2345567
H5 H 1.1961284 2.2432603 0.7689186
H6 H 1.2948627 2.1808133 0.783128
N1 N 0.9450304 2.4291163 0.08931948
N2 N 1.050763 2.599934 0.09272751
C7 C 1.1624417 2.3137094 1.49367703
C1 C 1.1061245 2.3921939 1.3507728
C2 C 1.099318 2.3451895 1.645331
C3 C 1.1335333 2.3403242 1.495794727
C4 C 1.1913501 2.2870946 1.491559334
C5 C 1.2820007 2.2540035 1.3402578
C6 C 1.2233508 2.2910981 1.3318171
N1 N 1.0549696 2.4291163 1.41068052
H1 H 1.1202345 2.4010756 1.2290026
H2 H 1.1078387 2.3154725 1.7654433
H5 H 1.3038716 2.2567397 1.2310814
H6 H 1.2051373 2.3191867 1.216872
C7 C 1.3375583 2.1862906 1.50632297
C1 C 1.3938755 2.1078061 1.6492272
C2 C 1.400682 2.1548105 1.354669
C3 C 1.3664667 2.1596758 1.504205273
C4 C 1.3086499 2.2129054 1.508440666
C5 C 1.2179993 2.2459965 1.6597422
C6 C 1.2766492 2.2089019 1.6681829
H1 H 1.3797655 2.0989244 1.7709974
H2 H 1.3921613 2.1845275 1.2345567
H5 H 1.1961284 2.2432603 1.7689186
H6 H 1.2948627 2.1808133 1.783128
C7 C 1.1624417 2.3137094 2.49367703
C1 C 1.1061245 2.3921939 2.3507728
C2 C 1.099318 2.3451895 2.645331
C3 C 1.1335333 2.3403242 2.495794727
C4 C 1.1913501 2.2870946 2.491559334
C5 C 1.2820007 2.2540035 2.3402578
C6 C 1.2233508 2.2910981 2.3318171
N1 N 1.0549696 2.4291163 2.41068052
H1 H 1.1202345 2.4010756 2.2290026
H2 H 1.1078387 2.3154725 2.7654433
H5 H 1.3038716 2.2567397 2.2310814
H6 H 1.2051373 2.3191867 2.216872
C7 C 1.3375583 2.1862906 2.50632297
C1 C 1.3938755 2.1078061 2.6492272
C2 C 1.400682 2.1548105 2.354669
C3 C 1.3664667 2.1596758 2.504205273
C4 C 1.3086499 2.2129054 2.508440666
C5 C 1.2179993 2.2459965 2.6597422
C6 C 1.2766492 2.2089019 2.6681829
H1 H 1.3797655 2.0989244 2.7709974
H2 H 1.3921613 2.1845275 2.2345567
H5 H 1.1961284 2.2432603 2.7689186
H6 H 1.2948627 2.1808133 2.783128
C7 C 1.1624417 2.3137094 3.49367703
C1 C 1.1061245 2.3921939 3.3507728
C2 C 1.099318 2.3451895 3.645331
C3 C 1.1335333 2.3403242 3.495794727
C4 C 1.1913501 2.2870946 3.491559334
C5 C 1.2820007 2.2540035 3.3402578
C6 C 1.2233508 2.2910981 3.3318171
N1 N 1.0549696 2.4291163 3.41068052
H1 H 1.1202345 2.4010756 3.2290026
H2 H 1.1078387 2.3154725 3.7654433
H5 H 1.3038716 2.2567397 3.2310814
H6 H 1.2051373 2.3191867 3.216872
C7 C 1.3375583 2.1862906 3.50632297
C1 C 1.3938755 2.1078061 3.6492272
C2 C 1.400682 2.1548105 3.354669
C3 C 1.3664667 2.1596758 3.504205273
C4 C 1.3086499 2.2129054 3.508440666
C5 C 1.2179993 2.2459965 3.6597422
C6 C 1.2766492 2.2089019 3.6681829
H1 H 1.3797655 2.0989244 3.7709974
H2 H 1.3921613 2.1845275 3.2345567
H5 H 1.1961284 2.2432603 3.7689186
H6 H 1.2948627 2.1808133 3.783128
C7 C 1.1624417 3.3137094 0.49367703
C1 C 1.1061245 3.3921939 0.3507728
C2 C 1.099318 3.3451895 0.645331
C3 C 1.1335333 3.3403242 0.495794727
C4 C 1.1913501 3.2870946 0.491559334
C5 C 1.2820007 3.2540035 0.3402578
C6 C 1.2233508 3.2910981 0.3318171
N1 N 1.0549696 3.4291163 0.41068052
H1 H 1.1202345 3.4010756 0.2290026
H2 H 1.1078387 3.3154725 0.7654433
H5 H 1.3038716 3.2567397 0.2310814
H6 H 1.2051373 3.3191867 0.216872
C7 C 1.3375583 3.1862906 0.50632297
C1 C 1.3938755 3.1078061 0.6492272
C2 C 1.400682 3.1548105 0.354669
C3 C 1.3664667 3.1596758 0.504205273
C4 C 1.3086499 3.2129054 0.508440666
C5 C 1.2179993 3.2459965 0.6597422
C6 C 1.2766492 3.2089019 0.6681829
H1 H 1.3797655 3.0989244 0.7709974
H2 H 1.3921613 3.1845275 0.2345567
H5 H 1.1961284 3.2432603 0.7689186
H6 H 1.2948627 3.1808133 0.783128
N1 N 0.9450304 3.4291163 0.08931948
N2 N 1.050763 3.599934 0.09272751
C7 C 1.1624417 3.3137094 1.49367703
C1 C 1.1061245 3.3921939 1.3507728
C2 C 1.099318 3.3451895 1.645331
C3 C 1.1335333 3.3403242 1.495794727
C4 C 1.1913501 3.2870946 1.491559334
C5 C 1.2820007 3.2540035 1.3402578
C6 C 1.2233508 3.2910981 1.3318171
N1 N 1.0549696 3.4291163 1.41068052
H1 H 1.1202345 3.4010756 1.2290026
H2 H 1.1078387 3.3154725 1.7654433
H5 H 1.3038716 3.2567397 1.2310814
H6 H 1.2051373 3.3191867 1.216872
C7 C 1.3375583 3.1862906 1.50632297
C1 C 1.3938755 3.1078061 1.6492272
C2 C 1.400682 3.1548105 1.354669
C3 C 1.3664667 3.1596758 1.504205273
C4 C 1.3086499 3.2129054 1.508440666
C5 C 1.2179993 3.2459965 1.6597422
C6 C 1.2766492 3.2089019 1.6681829
H1 H 1.3797655 3.0989244 1.7709974
H2 H 1.3921613 3.1845275 1.2345567
H5 H 1.1961284 3.2432603 1.7689186
H6 H 1.2948627 3.1808133 1.783128
C7 C 1.1624417 3.3137094 2.49367703
C1 C 1.1061245 3.3921939 2.3507728
C2 C 1.099318 3.3451895 2.645331
C3 C 1.1335333 3.3403242 2.495794727
C4 C 1.1913501 3.2870946 2.491559334
C5 C 1.2820007 3.2540035 2.3402578
C6 C 1.2233508 3.2910981 2.3318171
N1 N 1.0549696 3.4291163 2.41068052
H1 H 1.1202345 3.4010756 2.2290026
H2 H 1.1078387 3.3154725 2.7654433
H5 H 1.3038716 3.2567397 2.2310814
H6 H 1.2051373 3.3191867 2.216872
C7 C 1.3375583 3.1862906 2.50632297
C1 C 1.3938755 3.1078061 2.6492272
C2 C 1.400682 3.1548105 2.354669
C3 C 1.3664667 3.1596758 2.504205273
C4 C 1.3086499 3.2129054 2.508440666
C5 C 1.2179993 3.2459965 2.6597422
C6 C 1.2766492 3.2089019 2.6681829
H1 H 1.3797655 3.0989244 2.7709974
H2 H 1.3921613 3.1845275 2.2345567
H5 H 1.1961284 3.2432603 2.7689186
H6 H 1.2948627 3.1808133 2.783128
C7 C 1.1624417 3.3137094 3.49367703
C1 C 1.1061245 3.3921939 3.3507728
C2 C 1.099318 3.3451895 3.645331
C3 C 1.1335333 3.3403242 3.495794727
C4 C 1.1913501 3.2870946 3.491559334
C5 C 1.2820007 3.2540035 3.3402578
C6 C 1.2233508 3.2910981 3.3318171
N1 N 1.0549696 3.4291163 3.41068052
H1 H 1.1202345 3.4010756 3.2290026
H2 H 1.1078387 3.3154725 3.7654433
H5 H 1.3038716 3.2567397 3.2310814
H6 H 1.2051373 3.3191867 3.216872
C7 C 1.3375583 3.1862906 3.50632297
C1 C 1.3938755 3.1078061 3.6492272
C2 C 1.400682 3.1548105 3.354669
C3 C 1.3664667 3.1596758 3.504205273
C4 C 1.3086499 3.2129054 3.508440666
C5 C 1.2179993 3.2459965 3.6597422
C6 C 1.2766492 3.2089019 3.6681829
H1 H 1.3797655 3.0989244 3.7709974
H2 H 1.3921613 3.1845275 3.2345567
H5 H 1.1961284 3.2432603 3.7689186
H6 H 1.2948627 3.1808133 3.783128
C7 C 2.1624417 0.3137094 0.49367703
C1 C 2.1061245 0.3921939 0.3507728
C2 C 2.099318 0.3451895 0.645331
C3 C 2.1335333 0.3403242 0.495794727
C4 C 2.1913501 0.2870946 0.491559334
C5 C 2.2820007 0.2540035 0.3402578
C6 C 2.2233508 0.2910981 0.3318171
N1 N 2.0549696 0.4291163 0.41068052
H1 H 2.1202345 0.4010756 0.2290026
H2 H 2.1078387 0.3154725 0.7654433
H5 H 2.3038716 0.2567397 0.2310814
H6 H 2.2051373 0.3191867 0.216872
C7 C 2.3375583 0.1862906 0.50632297
C1 C 2.3938755 0.1078061 0.6492272
C2 C 2.400682 0.1548105 0.354669
C3 C 2.3664667 0.1596758 0.504205273
C4 C 2.3086499 0.2129054 0.508440666
C5 C 2.2179993 0.2459965 0.6597422
C6 C 2.2766492 0.2089019 0.6681829
N2 N 2.449237 0.099934 0.40727249
H1 H 2.3797655 0.0989244 0.7709974
H2 H 2.3921613 0.1845275 0.2345567
H5 H 2.1961284 0.2432603 0.7689186
H6 H 2.2948627 0.1808133 0.783128
N1 N 1.9450304 0.4291163 0.08931948
N2 N 2.050763 0.599934 0.09272751
Co Co 2.5 0.01922(60) 0.25
C7 C 2.1624417 0.3137094 1.49367703
C1 C 2.1061245 0.3921939 1.3507728
C2 C 2.099318 0.3451895 1.645331
C3 C 2.1335333 0.3403242 1.495794727
C4 C 2.1913501 0.2870946 1.491559334
C5 C 2.2820007 0.2540035 1.3402578
C6 C 2.2233508 0.2910981 1.3318171
N1 N 2.0549696 0.4291163 1.41068052
H1 H 2.1202345 0.4010756 1.2290026
H2 H 2.1078387 0.3154725 1.7654433
H5 H 2.3038716 0.2567397 1.2310814
H6 H 2.2051373 0.3191867 1.216872
C7 C 2.3375583 0.1862906 1.50632297
C1 C 2.3938755 0.1078061 1.6492272
C2 C 2.400682 0.1548105 1.354669
C3 C 2.3664667 0.1596758 1.504205273
C4 C 2.3086499 0.2129054 1.508440666
C5 C 2.2179993 0.2459965 1.6597422
C6 C 2.2766492 0.2089019 1.6681829
N2 N 2.449237 0.099934 1.40727249
H1 H 2.3797655 0.0989244 1.7709974
H2 H 2.3921613 0.1845275 1.2345567
H5 H 2.1961284 0.2432603 1.7689186
H6 H 2.2948627 0.1808133 1.783128
C7 C 2.1624417 0.3137094 2.49367703
C1 C 2.1061245 0.3921939 2.3507728
C2 C 2.099318 0.3451895 2.645331
C3 C 2.1335333 0.3403242 2.495794727
C4 C 2.1913501 0.2870946 2.491559334
C5 C 2.2820007 0.2540035 2.3402578
C6 C 2.2233508 0.2910981 2.3318171
N1 N 2.0549696 0.4291163 2.41068052
H1 H 2.1202345 0.4010756 2.2290026
H2 H 2.1078387 0.3154725 2.7654433
H5 H 2.3038716 0.2567397 2.2310814
H6 H 2.2051373 0.3191867 2.216872
C7 C 2.3375583 0.1862906 2.50632297
C1 C 2.3938755 0.1078061 2.6492272
C2 C 2.400682 0.1548105 2.354669
C3 C 2.3664667 0.1596758 2.504205273
C4 C 2.3086499 0.2129054 2.508440666
C5 C 2.2179993 0.2459965 2.6597422
C6 C 2.2766492 0.2089019 2.6681829
N2 N 2.449237 0.099934 2.40727249
H1 H 2.3797655 0.0989244 2.7709974
H2 H 2.3921613 0.1845275 2.2345567
H5 H 2.1961284 0.2432603 2.7689186
H6 H 2.2948627 0.1808133 2.783128
C7 C 2.1624417 0.3137094 3.49367703
C1 C 2.1061245 0.3921939 3.3507728
C2 C 2.099318 0.3451895 3.645331
C3 C 2.1335333 0.3403242 3.495794727
C4 C 2.1913501 0.2870946 3.491559334
C5 C 2.2820007 0.2540035 3.3402578
C6 C 2.2233508 0.2910981 3.3318171
N1 N 2.0549696 0.4291163 3.41068052
H1 H 2.1202345 0.4010756 3.2290026
H2 H 2.1078387 0.3154725 3.7654433
H5 H 2.3038716 0.2567397 3.2310814
H6 H 2.2051373 0.3191867 3.216872
C7 C 2.3375583 0.1862906 3.50632297
C1 C 2.3938755 0.1078061 3.6492272
C2 C 2.400682 0.1548105 3.354669
C3 C 2.3664667 0.1596758 3.504205273
C4 C 2.3086499 0.2129054 3.508440666
C5 C 2.2179993 0.2459965 3.6597422
C6 C 2.2766492 0.2089019 3.6681829
N2 N 2.449237 0.099934 3.40727249
H1 H 2.3797655 0.0989244 3.7709974
H2 H 2.3921613 0.1845275 3.2345567
H5 H 2.1961284 0.2432603 3.7689186
H6 H 2.2948627 0.1808133 3.783128
C7 C 2.1624417 1.3137094 0.49367703
C1 C 2.1061245 1.3921939 0.3507728
C2 C 2.099318 1.3451895 0.645331
C3 C 2.1335333 1.3403242 0.495794727
C4 C 2.1913501 1.2870946 0.491559334
C5 C 2.2820007 1.2540035 0.3402578
C6 C 2.2233508 1.2910981 0.3318171
N1 N 2.0549696 1.4291163 0.41068052
H1 H 2.1202345 1.4010756 0.2290026
H2 H 2.1078387 1.3154725 0.7654433
H5 H 2.3038716 1.2567397 0.2310814
H6 H 2.2051373 1.3191867 0.216872
C7 C 2.3375583 1.1862906 0.50632297
C1 C 2.3938755 1.1078061 0.6492272
C2 C 2.400682 1.1548105 0.354669
C3 C 2.3664667 1.1596758 0.504205273
C4 C 2.3086499 1.2129054 0.508440666
C5 C 2.2179993 1.2459965 0.6597422
C6 C 2.2766492 1.2089019 0.6681829
H1 H 2.3797655 1.0989244 0.7709974
H2 H 2.3921613 1.1845275 0.2345567
H5 H 2.1961284 1.2432603 0.7689186
H6 H 2.2948627 1.1808133 0.783128
N1 N 1.9450304 1.4291163 0.08931948
N2 N 2.050763 1.599934 0.09272751
C7 C 2.1624417 1.3137094 1.49367703
C1 C 2.1061245 1.3921939 1.3507728
C2 C 2.099318 1.3451895 1.645331
C3 C 2.1335333 1.3403242 1.495794727
C4 C 2.1913501 1.2870946 1.491559334
C5 C 2.2820007 1.2540035 1.3402578
C6 C 2.2233508 1.2910981 1.3318171
N1 N 2.0549696 1.4291163 1.41068052
H1 H 2.1202345 1.4010756 1.2290026
H2 H 2.1078387 1.3154725 1.7654433
H5 H 2.3038716 1.2567397 1.2310814
H6 H 2.2051373 1.3191867 1.216872
C7 C 2.3375583 1.1862906 1.50632297
C1 C 2.3938755 1.1078061 1.6492272
C2 C 2.400682 1.1548105 1.354669
C3 C 2.3664667 1.1596758 1.504205273
C4 C 2.3086499 1.2129054 1.508440666
C5 C 2.2179993 1.2459965 1.6597422
C6 C 2.2766492 1.2089019 1.6681829
H1 H 2.3797655 1.0989244 1.7709974
H2 H 2.3921613 1.1845275 1.2345567
H5 H 2.1961284 1.2432603 1.7689186
H6 H 2.2948627 1.1808133 1.783128
C7 C 2.1624417 1.3137094 2.49367703
C1 C 2.1061245 1.3921939 2.3507728
C2 C 2.099318 1.3451895 2.645331
C3 C 2.1335333 1.3403242 2.495794727
C4 C 2.1913501 1.2870946 2.491559334
C5 C 2.2820007 1.2540035 2.3402578
C6 C 2.2233508 1.2910981 2.3318171
N1 N 2.0549696 1.4291163 2.41068052
H1 H 2.1202345 1.4010756 2.2290026
H2 H 2.1078387 1.3154725 2.7654433
H5 H 2.3038716 1.2567397 2.2310814
H6 H 2.2051373 1.3191867 2.216872
C7 C 2.3375583 1.1862906 2.50632297
C1 C 2.3938755 1.1078061 2.6492272
C2 C 2.400682 1.1548105 2.354669
C3 C 2.3664667 1.1596758 2.504205273
C4 C 2.3086499 1.2129054 2.508440666
C5 C 2.2179993 1.2459965 2.6597422
C6 C 2.2766492 1.2089019 2.6681829
H1 H 2.3797655 1.0989244 2.7709974
H2 H 2.3921613 1.1845275 2.2345567
H5 H 2.1961284 1.2432603 2.7689186
H6 H 2.2948627 1.1808133 2.783128
C7 C 2.1624417 1.3137094 3.49367703
C1 C 2.1061245 1.3921939 3.3507728
C2 C 2.099318 1.3451895 3.645331
C3 C 2.1335333 1.3403242 3.495794727
C4 C 2.1913501 1.2870946 3.491559334
C5 C 2.2820007 1.2540035 3.3402578
C6 C 2.2233508 1.2910981 3.3318171
N1 N 2.0549696 1.4291163 3.41068052
H1 H 2.1202345 1.4010756 3.2290026
H2 H 2.1078387 1.3154725 3.7654433
H5 H 2.3038716 1.2567397 3.2310814
H6 H 2.2051373 1.3191867 3.216872
C7 C 2.3375583 1.1862906 3.50632297
C1 C 2.3938755 1.1078061 3.6492272
C2 C 2.400682 1.1548105 3.354669
C3 C 2.3664667 1.1596758 3.504205273
C4 C 2.3086499 1.2129054 3.508440666
C5 C 2.2179993 1.2459965 3.6597422
C6 C 2.2766492 1.2089019 3.6681829
H1 H 2.3797655 1.0989244 3.7709974
H2 H 2.3921613 1.1845275 3.2345567
H5 H 2.1961284 1.2432603 3.7689186
H6 H 2.2948627 1.1808133 3.783128
C7 C 2.1624417 2.3137094 0.49367703
C1 C 2.1061245 2.3921939 0.3507728
C2 C 2.099318 2.3451895 0.645331
C3 C 2.1335333 2.3403242 0.495794727
C4 C 2.1913501 2.2870946 0.491559334
C5 C 2.2820007 2.2540035 0.3402578
C6 C 2.2233508 2.2910981 0.3318171
N1 N 2.0549696 2.4291163 0.41068052
H1 H 2.1202345 2.4010756 0.2290026
H2 H 2.1078387 2.3154725 0.7654433
H5 H 2.3038716 2.2567397 0.2310814
H6 H 2.2051373 2.3191867 0.216872
C7 C 2.3375583 2.1862906 0.50632297
C1 C 2.3938755 2.1078061 0.6492272
C2 C 2.400682 2.1548105 0.354669
C3 C 2.3664667 2.1596758 0.504205273
C4 C 2.3086499 2.2129054 0.508440666
C5 C 2.2179993 2.2459965 0.6597422
C6 C 2.2766492 2.2089019 0.6681829
H1 H 2.3797655 2.0989244 0.7709974
H2 H 2.3921613 2.1845275 0.2345567
H5 H 2.1961284 2.2432603 0.7689186
H6 H 2.2948627 2.1808133 0.783128
N1 N 1.9450304 2.4291163 0.08931948
N2 N 2.050763 2.599934 0.09272751
C7 C 2.1624417 2.3137094 1.49367703
C1 C 2.1061245 2.3921939 1.3507728
C2 C 2.099318 2.3451895 1.645331
C3 C 2.1335333 2.3403242 1.495794727
C4 C 2.1913501 2.2870946 1.491559334
C5 C 2.2820007 2.2540035 1.3402578
C6 C 2.2233508 2.2910981 1.3318171
N1 N 2.0549696 2.4291163 1.41068052
H1 H 2.1202345 2.4010756 1.2290026
H2 H 2.1078387 2.3154725 1.7654433
H5 H 2.3038716 2.2567397 1.2310814
H6 H 2.2051373 2.3191867 1.216872
C7 C 2.3375583 2.1862906 1.50632297
C1 C 2.3938755 2.1078061 1.6492272
C2 C 2.400682 2.1548105 1.354669
C3 C 2.3664667 2.1596758 1.504205273
C4 C 2.3086499 2.2129054 1.508440666
C5 C 2.2179993 2.2459965 1.6597422
C6 C 2.2766492 2.2089019 1.6681829
H1 H 2.3797655 2.0989244 1.7709974
H2 H 2.3921613 2.1845275 1.2345567
H5 H 2.1961284 2.2432603 1.7689186
H6 H 2.2948627 2.1808133 1.783128
C7 C 2.1624417 2.3137094 2.49367703
C1 C 2.1061245 2.3921939 2.3507728
C2 C 2.099318 2.3451895 2.645331
C3 C 2.1335333 2.3403242 2.495794727
C4 C 2.1913501 2.2870946 2.491559334
C5 C 2.2820007 2.2540035 2.3402578
C6 C 2.2233508 2.2910981 2.3318171
N1 N 2.0549696 2.4291163 2.41068052
H1 H 2.1202345 2.4010756 2.2290026
H2 H 2.1078387 2.3154725 2.7654433
H5 H 2.3038716 2.2567397 2.2310814
H6 H 2.2051373 2.3191867 2.216872
C7 C 2.3375583 2.1862906 2.50632297
C1 C 2.3938755 2.1078061 2.6492272
C2 C 2.400682 2.1548105 2.354669
C3 C 2.3664667 2.1596758 2.504205273
C4 C 2.3086499 2.2129054 2.508440666
C5 C 2.2179993 2.2459965 2.6597422
C6 C 2.2766492 2.2089019 2.6681829
H1 H 2.3797655 2.0989244 2.7709974
H2 H 2.3921613 2.1845275 2.2345567
H5 H 2.1961284 2.2432603 2.7689186
H6 H 2.2948627 2.1808133 2.783128
C7 C 2.1624417 2.3137094 3.49367703
C1 C 2.1061245 2.3921939 3.3507728
C2 C 2.099318 2.3451895 3.645331
C3 C 2.1335333 2.3403242 3.495794727
C4 C 2.1913501 2.2870946 3.491559334
C5 C 2.2820007 2.2540035 3.3402578
C6 C 2.2233508 2.2910981 3.3318171
N1 N 2.0549696 2.4291163 3.41068052
H1 H 2.1202345 2.4010756 3.2290026
H2 H 2.1078387 2.3154725 3.7654433
H5 H 2.3038716 2.2567397 3.2310814
H6 H 2.2051373 2.3191867 3.216872
C7 C 2.3375583 2.1862906 3.50632297
C1 C 2.3938755 2.1078061 3.6492272
C2 C 2.400682 2.1548105 3.354669
C3 C 2.3664667 2.1596758 3.504205273
C4 C 2.3086499 2.2129054 3.508440666
C5 C 2.2179993 2.2459965 3.6597422
C6 C 2.2766492 2.2089019 3.6681829
H1 H 2.3797655 2.0989244 3.7709974
H2 H 2.3921613 2.1845275 3.2345567
H5 H 2.1961284 2.2432603 3.7689186
H6 H 2.2948627 2.1808133 3.783128
C7 C 2.1624417 3.3137094 0.49367703
C1 C 2.1061245 3.3921939 0.3507728
C2 C 2.099318 3.3451895 0.645331
C3 C 2.1335333 3.3403242 0.495794727
C4 C 2.1913501 3.2870946 0.491559334
C5 C 2.2820007 3.2540035 0.3402578
C6 C 2.2233508 3.2910981 0.3318171
N1 N 2.0549696 3.4291163 0.41068052
H1 H 2.1202345 3.4010756 0.2290026
H2 H 2.1078387 3.3154725 0.7654433
H5 H 2.3038716 3.2567397 0.2310814
H6 H 2.2051373 3.3191867 0.216872
C7 C 2.3375583 3.1862906 0.50632297
C1 C 2.3938755 3.1078061 0.6492272
C2 C 2.400682 3.1548105 0.354669
C3 C 2.3664667 3.1596758 0.504205273
C4 C 2.3086499 3.2129054 0.508440666
C5 C 2.2179993 3.2459965 0.6597422
C6 C 2.2766492 3.2089019 0.6681829
H1 H 2.3797655 3.0989244 0.7709974
H2 H 2.3921613 3.1845275 0.2345567
H5 H 2.1961284 3.2432603 0.7689186
H6 H 2.2948627 3.1808133 0.783128
N1 N 1.9450304 3.4291163 0.08931948
N2 N 2.050763 3.599934 0.09272751
C7 C 2.1624417 3.3137094 1.49367703
C1 C 2.1061245 3.3921939 1.3507728
C2 C 2.099318 3.3451895 1.645331
C3 C 2.1335333 3.3403242 1.495794727
C4 C 2.1913501 3.2870946 1.491559334
C5 C 2.2820007 3.2540035 1.3402578
C6 C 2.2233508 3.2910981 1.3318171
N1 N 2.0549696 3.4291163 1.41068052
H1 H 2.1202345 3.4010756 1.2290026
H2 H 2.1078387 3.3154725 1.7654433
H5 H 2.3038716 3.2567397 1.2310814
H6 H 2.2051373 3.3191867 1.216872
C7 C 2.3375583 3.1862906 1.50632297
C1 C 2.3938755 3.1078061 1.6492272
C2 C 2.400682 3.1548105 1.354669
C3 C 2.3664667 3.1596758 1.504205273
C4 C 2.3086499 3.2129054 1.508440666
C5 C 2.2179993 3.2459965 1.6597422
C6 C 2.2766492 3.2089019 1.6681829
H1 H 2.3797655 3.0989244 1.7709974
H2 H 2.3921613 3.1845275 1.2345567
H5 H 2.1961284 3.2432603 1.7689186
H6 H 2.2948627 3.1808133 1.783128
C7 C 2.1624417 3.3137094 2.49367703
C1 C 2.1061245 3.3921939 2.3507728
C2 C 2.099318 3.3451895 2.645331
C3 C 2.1335333 3.3403242 2.495794727
C4 C 2.1913501 3.2870946 2.491559334
C5 C 2.2820007 3.2540035 2.3402578
C6 C 2.2233508 3.2910981 2.3318171
N1 N 2.0549696 3.4291163 2.41068052
H1 H 2.1202345 3.4010756 2.2290026
H2 H 2.1078387 3.3154725 2.7654433
H5 H 2.3038716 3.2567397 2.2310814
H6 H 2.2051373 3.3191867 2.216872
C7 C 2.3375583 3.1862906 2.50632297
C1 C 2.3938755 3.1078061 2.6492272
C2 C 2.400682 3.1548105 2.354669
C3 C 2.3664667 3.1596758 2.504205273
C4 C 2.3086499 3.2129054 2.508440666
C5 C 2.2179993 3.2459965 2.6597422
C6 C 2.2766492 3.2089019 2.6681829
H1 H 2.3797655 3.0989244 2.7709974
H2 H 2.3921613 3.1845275 2.2345567
H5 H 2.1961284 3.2432603 2.7689186
H6 H 2.2948627 3.1808133 2.783128
C7 C 2.1624417 3.3137094 3.49367703
C1 C 2.1061245 3.3921939 3.3507728
C2 C 2.099318 3.3451895 3.645331
C3 C 2.1335333 3.3403242 3.495794727
C4 C 2.1913501 3.2870946 3.491559334
C5 C 2.2820007 3.2540035 3.3402578
C6 C 2.2233508 3.2910981 3.3318171
N1 N 2.0549696 3.4291163 3.41068052
H1 H 2.1202345 3.4010756 3.2290026
H2 H 2.1078387 3.3154725 3.7654433
H5 H 2.3038716 3.2567397 3.2310814
H6 H 2.2051373 3.3191867 3.216872
C7 C 2.3375583 3.1862906 3.50632297
C1 C 2.3938755 3.1078061 3.6492272
C2 C 2.400682 3.1548105 3.354669
C3 C 2.3664667 3.1596758 3.504205273
C4 C 2.3086499 3.2129054 3.508440666
C5 C 2.2179993 3.2459965 3.6597422
C6 C 2.2766492 3.2089019 3.6681829
H1 H 2.3797655 3.0989244 3.7709974
H2 H 2.3921613 3.1845275 3.2345567
H5 H 2.1961284 3.2432603 3.7689186
H6 H 2.2948627 3.1808133 3.783128
C7 C 3.1624417 0.3137094 0.49367703
C1 C 3.1061245 0.3921939 0.3507728
C2 C 3.099318 0.3451895 0.645331
C3 C 3.1335333 0.3403242 0.495794727
C4 C 3.1913501 0.2870946 0.491559334
C5 C 3.2820007 0.2540035 0.3402578
C6 C 3.2233508 0.2910981 0.3318171
N1 N 3.0549696 0.4291163 0.41068052
H1 H 3.1202345 0.4010756 0.2290026
H2 H 3.1078387 0.3154725 0.7654433
H5 H 3.3038716 0.2567397 0.2310814
H6 H 3.2051373 0.3191867 0.216872
C7 C 3.3375583 0.1862906 0.50632297
C1 C 3.3938755 0.1078061 0.6492272
C2 C 3.400682 0.1548105 0.354669
C3 C 3.3664667 0.1596758 0.504205273
C4 C 3.3086499 0.2129054 0.508440666
C5 C 3.2179993 0.2459965 0.6597422
C6 C 3.2766492 0.2089019 0.6681829
N2 N 3.449237 0.099934 0.40727249
H1 H 3.3797655 0.0989244 0.7709974
H2 H 3.3921613 0.1845275 0.2345567
H5 H 3.1961284 0.2432603 0.7689186
H6 H 3.2948627 0.1808133 0.783128
N1 N 2.9450304 0.4291163 0.08931948
N2 N 3.050763 0.599934 0.09272751
Co Co 3.5 0.01922(60) 0.25
C7 C 3.1624417 0.3137094 1.49367703
C1 C 3.1061245 0.3921939 1.3507728
C2 C 3.099318 0.3451895 1.645331
C3 C 3.1335333 0.3403242 1.495794727
C4 C 3.1913501 0.2870946 1.491559334
C5 C 3.2820007 0.2540035 1.3402578
C6 C 3.2233508 0.2910981 1.3318171
N1 N 3.0549696 0.4291163 1.41068052
H1 H 3.1202345 0.4010756 1.2290026
H2 H 3.1078387 0.3154725 1.7654433
H5 H 3.3038716 0.2567397 1.2310814
H6 H 3.2051373 0.3191867 1.216872
C7 C 3.3375583 0.1862906 1.50632297
C1 C 3.3938755 0.1078061 1.6492272
C2 C 3.400682 0.1548105 1.354669
C3 C 3.3664667 0.1596758 1.504205273
C4 C 3.3086499 0.2129054 1.508440666
C5 C 3.2179993 0.2459965 1.6597422
C6 C 3.2766492 0.2089019 1.6681829
N2 N 3.449237 0.099934 1.40727249
H1 H 3.3797655 0.0989244 1.7709974
H2 H 3.3921613 0.1845275 1.2345567
H5 H 3.1961284 0.2432603 1.7689186
H6 H 3.2948627 0.1808133 1.783128
C7 C 3.1624417 0.3137094 2.49367703
C1 C 3.1061245 0.3921939 2.3507728
C2 C 3.099318 0.3451895 2.645331
C3 C 3.1335333 0.3403242 2.495794727
C4 C 3.1913501 0.2870946 2.491559334
C5 C 3.2820007 0.2540035 2.3402578
C6 C 3.2233508 0.2910981 2.3318171
N1 N 3.0549696 0.4291163 2.41068052
H1 H 3.1202345 0.4010756 2.2290026
H2 H 3.1078387 0.3154725 2.7654433
H5 H 3.3038716 0.2567397 2.2310814
H6 H 3.2051373 0.3191867 2.216872
C7 C 3.3375583 0.1862906 2.50632297
C1 C 3.3938755 0.1078061 2.6492272
C2 C 3.400682 0.1548105 2.354669
C3 C 3.3664667 0.1596758 2.504205273
C4 C 3.3086499 0.2129054 2.508440666
C5 C 3.2179993 0.2459965 2.6597422
C6 C 3.2766492 0.2089019 2.6681829
N2 N 3.449237 0.099934 2.40727249
H1 H 3.3797655 0.0989244 2.7709974
H2 H 3.3921613 0.1845275 2.2345567
H5 H 3.1961284 0.2432603 2.7689186
H6 H 3.2948627 0.1808133 2.783128
C7 C 3.1624417 0.3137094 3.49367703
C1 C 3.1061245 0.3921939 3.3507728
C2 C 3.099318 0.3451895 3.645331
C3 C 3.1335333 0.3403242 3.495794727
C4 C 3.1913501 0.2870946 3.491559334
C5 C 3.2820007 0.2540035 3.3402578
C6 C 3.2233508 0.2910981 3.3318171
N1 N 3.0549696 0.4291163 3.41068052
H1 H 3.1202345 0.4010756 3.2290026
H2 H 3.1078387 0.3154725 3.7654433
H5 H 3.3038716 0.2567397 3.2310814
H6 H 3.2051373 0.3191867 3.216872
C7 C 3.3375583 0.1862906 3.50632297
C1 C 3.3938755 0.1078061 3.6492272
C2 C 3.400682 0.1548105 3.354669
C3 C 3.3664667 0.1596758 3.504205273
C4 C 3.3086499 0.2129054 3.508440666
C5 C 3.2179993 0.2459965 3.6597422
C6 C 3.2766492 0.2089019 3.6681829
N2 N 3.449237 0.099934 3.40727249
H1 H 3.3797655 0.0989244 3.7709974
H2 H 3.3921613 0.1845275 3.2345567
H5 H 3.1961284 0.2432603 3.7689186
H6 H 3.2948627 0.1808133 3.783128
C7 C 3.1624417 1.3137094 0.49367703
C1 C 3.1061245 1.3921939 0.3507728
C2 C 3.099318 1.3451895 0.645331
C3 C 3.1335333 1.3403242 0.495794727
C4 C 3.1913501 1.2870946 0.491559334
C5 C 3.2820007 1.2540035 0.3402578
C6 C 3.2233508 1.2910981 0.3318171
N1 N 3.0549696 1.4291163 0.41068052
H1 H 3.1202345 1.4010756 0.2290026
H2 H 3.1078387 1.3154725 0.7654433
H5 H 3.3038716 1.2567397 0.2310814
H6 H 3.2051373 1.3191867 0.216872
C7 C 3.3375583 1.1862906 0.50632297
C1 C 3.3938755 1.1078061 0.6492272
C2 C 3.400682 1.1548105 0.354669
C3 C 3.3664667 1.1596758 0.504205273
C4 C 3.3086499 1.2129054 0.508440666
C5 C 3.2179993 1.2459965 0.6597422
C6 C 3.2766492 1.2089019 0.6681829
H1 H 3.3797655 1.0989244 0.7709974
H2 H 3.3921613 1.1845275 0.2345567
H5 H 3.1961284 1.2432603 0.7689186
H6 H 3.2948627 1.1808133 0.783128
N1 N 2.9450304 1.4291163 0.08931948
N2 N 3.050763 1.599934 0.09272751
C7 C 3.1624417 1.3137094 1.49367703
C1 C 3.1061245 1.3921939 1.3507728
C2 C 3.099318 1.3451895 1.645331
C3 C 3.1335333 1.3403242 1.495794727
C4 C 3.1913501 1.2870946 1.491559334
C5 C 3.2820007 1.2540035 1.3402578
C6 C 3.2233508 1.2910981 1.3318171
N1 N 3.0549696 1.4291163 1.41068052
H1 H 3.1202345 1.4010756 1.2290026
H2 H 3.1078387 1.3154725 1.7654433
H5 H 3.3038716 1.2567397 1.2310814
H6 H 3.2051373 1.3191867 1.216872
C7 C 3.3375583 1.1862906 1.50632297
C1 C 3.3938755 1.1078061 1.6492272
C2 C 3.400682 1.1548105 1.354669
C3 C 3.3664667 1.1596758 1.504205273
C4 C 3.3086499 1.2129054 1.508440666
C5 C 3.2179993 1.2459965 1.6597422
C6 C 3.2766492 1.2089019 1.6681829
H1 H 3.3797655 1.0989244 1.7709974
H2 H 3.3921613 1.1845275 1.2345567
H5 H 3.1961284 1.2432603 1.7689186
H6 H 3.2948627 1.1808133 1.783128
C7 C 3.1624417 1.3137094 2.49367703
C1 C 3.1061245 1.3921939 2.3507728
C2 C 3.099318 1.3451895 2.645331
C3 C 3.1335333 1.3403242 2.495794727
C4 C 3.1913501 1.2870946 2.491559334
C5 C 3.2820007 1.2540035 2.3402578
C6 C 3.2233508 1.2910981 2.3318171
N1 N 3.0549696 1.4291163 2.41068052
H1 H 3.1202345 1.4010756 2.2290026
H2 H 3.1078387 1.3154725 2.7654433
H5 H 3.3038716 1.2567397 2.2310814
H6 H 3.2051373 1.3191867 2.216872
C7 C 3.3375583 1.1862906 2.50632297
C1 C 3.3938755 1.1078061 2.6492272
C2 C 3.400682 1.1548105 2.354669
C3 C 3.3664667 1.1596758 2.504205273
C4 C 3.3086499 1.2129054 2.508440666
C5 C 3.2179993 1.2459965 2.6597422
C6 C 3.2766492 1.2089019 2.6681829
H1 H 3.3797655 1.0989244 2.7709974
H2 H 3.3921613 1.1845275 2.2345567
H5 H 3.1961284 1.2432603 2.7689186
H6 H 3.2948627 1.1808133 2.783128
C7 C 3.1624417 1.3137094 3.49367703
C1 C 3.1061245 1.3921939 3.3507728
C2 C 3.099318 1.3451895 3.645331
C3 C 3.1335333 1.3403242 3.495794727
C4 C 3.1913501 1.2870946 3.491559334
C5 C 3.2820007 1.2540035 3.3402578
C6 C 3.2233508 1.2910981 3.3318171
N1 N 3.0549696 1.4291163 3.41068052
H1 H 3.1202345 1.4010756 3.2290026
H2 H 3.1078387 1.3154725 3.7654433
H5 H 3.3038716 1.2567397 3.2310814
H6 H 3.2051373 1.3191867 3.216872
C7 C 3.3375583 1.1862906 3.50632297
C1 C 3.3938755 1.1078061 3.6492272
C2 C 3.400682 1.1548105 3.354669
C3 C 3.3664667 1.1596758 3.504205273
C4 C 3.3086499 1.2129054 3.508440666
C5 C 3.2179993 1.2459965 3.6597422
C6 C 3.2766492 1.2089019 3.6681829
H1 H 3.3797655 1.0989244 3.7709974
H2 H 3.3921613 1.1845275 3.2345567
H5 H 3.1961284 1.2432603 3.7689186
H6 H 3.2948627 1.1808133 3.783128
C7 C 3.1624417 2.3137094 0.49367703
C1 C 3.1061245 2.3921939 0.3507728
C2 C 3.099318 2.3451895 0.645331
C3 C 3.1335333 2.3403242 0.495794727
C4 C 3.1913501 2.2870946 0.491559334
C5 C 3.2820007 2.2540035 0.3402578
C6 C 3.2233508 2.2910981 0.3318171
N1 N 3.0549696 2.4291163 0.41068052
H1 H 3.1202345 2.4010756 0.2290026
H2 H 3.1078387 2.3154725 0.7654433
H5 H 3.3038716 2.2567397 0.2310814
H6 H 3.2051373 2.3191867 0.216872
C7 C 3.3375583 2.1862906 0.50632297
C1 C 3.3938755 2.1078061 0.6492272
C2 C 3.400682 2.1548105 0.354669
C3 C 3.3664667 2.1596758 0.504205273
C4 C 3.3086499 2.2129054 0.508440666
C5 C 3.2179993 2.2459965 0.6597422
C6 C 3.2766492 2.2089019 0.6681829
H1 H 3.3797655 2.0989244 0.7709974
H2 H 3.3921613 2.1845275 0.2345567
H5 H 3.1961284 2.2432603 0.7689186
H6 H 3.2948627 2.1808133 0.783128
N1 N 2.9450304 2.4291163 0.08931948
N2 N 3.050763 2.599934 0.09272751
C7 C 3.1624417 2.3137094 1.49367703
C1 C 3.1061245 2.3921939 1.3507728
C2 C 3.099318 2.3451895 1.645331
C3 C 3.1335333 2.3403242 1.495794727
C4 C 3.1913501 2.2870946 1.491559334
C5 C 3.2820007 2.2540035 1.3402578
C6 C 3.2233508 2.2910981 1.3318171
N1 N 3.0549696 2.4291163 1.41068052
H1 H 3.1202345 2.4010756 1.2290026
H2 H 3.1078387 2.3154725 1.7654433
H5 H 3.3038716 2.2567397 1.2310814
H6 H 3.2051373 2.3191867 1.216872
C7 C 3.3375583 2.1862906 1.50632297
C1 C 3.3938755 2.1078061 1.6492272
C2 C 3.400682 2.1548105 1.354669
C3 C 3.3664667 2.1596758 1.504205273
C4 C 3.3086499 2.2129054 1.508440666
C5 C 3.2179993 2.2459965 1.6597422
C6 C 3.2766492 2.2089019 1.6681829
H1 H 3.3797655 2.0989244 1.7709974
H2 H 3.3921613 2.1845275 1.2345567
H5 H 3.1961284 2.2432603 1.7689186
H6 H 3.2948627 2.1808133 1.783128
C7 C 3.1624417 2.3137094 2.49367703
C1 C 3.1061245 2.3921939 2.3507728
C2 C 3.099318 2.3451895 2.645331
C3 C 3.1335333 2.3403242 2.495794727
C4 C 3.1913501 2.2870946 2.491559334
C5 C 3.2820007 2.2540035 2.3402578
C6 C 3.2233508 2.2910981 2.3318171
N1 N 3.0549696 2.4291163 2.41068052
H1 H 3.1202345 2.4010756 2.2290026
H2 H 3.1078387 2.3154725 2.7654433
H5 H 3.3038716 2.2567397 2.2310814
H6 H 3.2051373 2.3191867 2.216872
C7 C 3.3375583 2.1862906 2.50632297
C1 C 3.3938755 2.1078061 2.6492272
C2 C 3.400682 2.1548105 2.354669
C3 C 3.3664667 2.1596758 2.504205273
C4 C 3.3086499 2.2129054 2.508440666
C5 C 3.2179993 2.2459965 2.6597422
C6 C 3.2766492 2.2089019 2.6681829
H1 H 3.3797655 2.0989244 2.7709974
H2 H 3.3921613 2.1845275 2.2345567
H5 H 3.1961284 2.2432603 2.7689186
H6 H 3.2948627 2.1808133 2.783128
C7 C 3.1624417 2.3137094 3.49367703
C1 C 3.1061245 2.3921939 3.3507728
C2 C 3.099318 2.3451895 3.645331
C3 C 3.1335333 2.3403242 3.495794727
C4 C 3.1913501 2.2870946 3.491559334
C5 C 3.2820007 2.2540035 3.3402578
C6 C 3.2233508 2.2910981 3.3318171
N1 N 3.0549696 2.4291163 3.41068052
H1 H 3.1202345 2.4010756 3.2290026
H2 H 3.1078387 2.3154725 3.7654433
H5 H 3.3038716 2.2567397 3.2310814
H6 H 3.2051373 2.3191867 3.216872
C7 C 3.3375583 2.1862906 3.50632297
C1 C 3.3938755 2.1078061 3.6492272
C2 C 3.400682 2.1548105 3.354669
C3 C 3.3664667 2.1596758 3.504205273
C4 C 3.3086499 2.2129054 3.508440666
C5 C 3.2179993 2.2459965 3.6597422
C6 C 3.2766492 2.2089019 3.6681829
H1 H 3.3797655 2.0989244 3.7709974
H2 H 3.3921613 2.1845275 3.2345567
H5 H 3.1961284 2.2432603 3.7689186
H6 H 3.2948627 2.1808133 3.783128
C7 C 3.1624417 3.3137094 0.49367703
C1 C 3.1061245 3.3921939 0.3507728
C2 C 3.099318 3.3451895 0.645331
C3 C 3.1335333 3.3403242 0.495794727
C4 C 3.1913501 3.2870946 0.491559334
C5 C 3.2820007 3.2540035 0.3402578
C6 C 3.2233508 3.2910981 0.3318171
N1 N 3.0549696 3.4291163 0.41068052
H1 H 3.1202345 3.4010756 0.2290026
H2 H 3.1078387 3.3154725 0.7654433
H5 H 3.3038716 3.2567397 0.2310814
H6 H 3.2051373 3.3191867 0.216872
C7 C 3.3375583 3.1862906 0.50632297
C1 C 3.3938755 3.1078061 0.6492272
C2 C 3.400682 3.1548105 0.354669
C3 C 3.3664667 3.1596758 0.504205273
C4 C 3.3086499 3.2129054 0.508440666
C5 C 3.2179993 3.2459965 0.6597422
C6 C 3.2766492 3.2089019 0.6681829
H1 H 3.3797655 3.0989244 0.7709974
H2 H 3.3921613 3.1845275 0.2345567
H5 H 3.1961284 3.2432603 0.7689186
H6 H 3.2948627 3.1808133 0.783128
N1 N 2.9450304 3.4291163 0.08931948
N2 N 3.050763 3.599934 0.09272751
C7 C 3.1624417 3.3137094 1.49367703
C1 C 3.1061245 3.3921939 1.3507728
C2 C 3.099318 3.3451895 1.645331
C3 C 3.1335333 3.3403242 1.495794727
C4 C 3.1913501 3.2870946 1.491559334
C5 C 3.2820007 3.2540035 1.3402578
C6 C 3.2233508 3.2910981 1.3318171
N1 N 3.0549696 3.4291163 1.41068052
H1 H 3.1202345 3.4010756 1.2290026
H2 H 3.1078387 3.3154725 1.7654433
H5 H 3.3038716 3.2567397 1.2310814
H6 H 3.2051373 3.3191867 1.216872
C7 C 3.3375583 3.1862906 1.50632297
C1 C 3.3938755 3.1078061 1.6492272
C2 C 3.400682 3.1548105 1.354669
C3 C 3.3664667 3.1596758 1.504205273
C4 C 3.3086499 3.2129054 1.508440666
C5 C 3.2179993 3.2459965 1.6597422
C6 C 3.2766492 3.2089019 1.6681829
H1 H 3.3797655 3.0989244 1.7709974
H2 H 3.3921613 3.1845275 1.2345567
H5 H 3.1961284 3.2432603 1.7689186
H6 H 3.2948627 3.1808133 1.783128
C7 C 3.1624417 3.3137094 2.49367703
C1 C 3.1061245 3.3921939 2.3507728
C2 C 3.099318 3.3451895 2.645331
C3 C 3.1335333 3.3403242 2.495794727
C4 C 3.1913501 3.2870946 2.491559334
C5 C 3.2820007 3.2540035 2.3402578
C6 C 3.2233508 3.2910981 2.3318171
N1 N 3.0549696 3.4291163 2.41068052
H1 H 3.1202345 3.4010756 2.2290026
H2 H 3.1078387 3.3154725 2.7654433
H5 H 3.3038716 3.2567397 2.2310814
H6 H 3.2051373 3.3191867 2.216872
C7 C 3.3375583 3.1862906 2.50632297
C1 C 3.3938755 3.1078061 2.6492272
C2 C 3.400682 3.1548105 2.354669
C3 C 3.3664667 3.1596758 2.504205273
C4 C 3.3086499 3.2129054 2.508440666
C5 C 3.2179993 3.2459965 2.6597422
C6 C 3.2766492 3.2089019 2.6681829
H1 H 3.3797655 3.0989244 2.7709974
H2 H 3.3921613 3.1845275 2.2345567
H5 H 3.1961284 3.2432603 2.7689186
H6 H 3.2948627 3.1808133 2.783128
C7 C 3.1624417 3.3137094 3.49367703
C1 C 3.1061245 3.3921939 3.3507728
C2 C 3.099318 3.3451895 3.645331
C3 C 3.1335333 3.3403242 3.495794727
C4 C 3.1913501 3.2870946 3.491559334
C5 C 3.2820007 3.2540035 3.3402578
C6 C 3.2233508 3.2910981 3.3318171
N1 N 3.0549696 3.4291163 3.41068052
H1 H 3.1202345 3.4010756 3.2290026
H2 H 3.1078387 3.3154725 3.7654433
H5 H 3.3038716 3.2567397 3.2310814
H6 H 3.2051373 3.3191867 3.216872
C7 C 3.3375583 3.1862906 3.50632297
C1 C 3.3938755 3.1078061 3.6492272
C2 C 3.400682 3.1548105 3.354669
C3 C 3.3664667 3.1596758 3.504205273
C4 C 3.3086499 3.2129054 3.508440666
C5 C 3.2179993 3.2459965 3.6597422
C6 C 3.2766492 3.2089019 3.6681829
H1 H 3.3797655 3.0989244 3.7709974
H2 H 3.3921613 3.1845275 3.2345567
H5 H 3.1961284 3.2432603 3.7689186
H6 H 3.2948627 3.1808133 3.783128
C7 C 0.3375583 0.8137094 0.00632297
C1 C 0.3938755 0.8921939 0.1492272
C2 C 0.400682 0.8451895 -0.145331
C3 C 0.3664667 0.8403242 0.004205273
C4 C 0.3086499 0.7870946 0.008440666
C5 C 0.2179993 0.7540035 0.1597422
C6 C 0.2766492 0.7910981 0.1681829
N2 N 0.449237 0.900066 -0.09272751
H1 H 0.3797655 0.9010756 0.2709974
H2 H 0.3921613 0.8154725 -0.2654433
H5 H 0.1961284 0.7567397 0.2689186
H6 H 0.2948627 0.8191867 0.283128
C7 C 0.1624417 0.6862906 -0.00632297
C1 C 0.1061245 0.6078061 -0.1492272
C2 C 0.099318 0.6548105 0.145331
C3 C 0.1335333 0.6596758 -0.004205273
C4 C 0.1913501 0.7129054 -0.008440666
C5 C 0.2820007 0.7459965 -0.1597422
C6 C 0.2233508 0.7089019 -0.1681829
N1 N 0.0549696 0.5708837 -0.08931948
H1 H 0.1202345 0.5989244 -0.2709974
H2 H 0.1078387 0.6845275 0.2654433
H5 H 0.3038716 0.7432603 -0.2689186
H6 H 0.2051373 0.6808133 -0.283128
Co Co 0.5 0.98078(60) -0.25
Co Co 0.0 0.48078(60) -0.25
C7 C 0.3375583 1.8137094 0.00632297
C1 C 0.3938755 1.8921939 0.1492272
C2 C 0.400682 1.8451895 -0.145331
C3 C 0.3664667 1.8403242 0.004205273
C4 C 0.3086499 1.7870946 0.008440666
C5 C 0.2179993 1.7540035 0.1597422
C6 C 0.2766492 1.7910981 0.1681829
N2 N 0.449237 1.900066 -0.09272751
H1 H 0.3797655 1.9010756 0.2709974
H2 H 0.3921613 1.8154725 -0.2654433
H5 H 0.1961284 1.7567397 0.2689186
H6 H 0.2948627 1.8191867 0.283128
C7 C 0.1624417 1.6862906 -0.00632297
C1 C 0.1061245 1.6078061 -0.1492272
C2 C 0.099318 1.6548105 0.145331
C3 C 0.1335333 1.6596758 -0.004205273
C4 C 0.1913501 1.7129054 -0.008440666
C5 C 0.2820007 1.7459965 -0.1597422
C6 C 0.2233508 1.7089019 -0.1681829
N1 N 0.0549696 1.5708837 -0.08931948
H1 H 0.1202345 1.5989244 -0.2709974
H2 H 0.1078387 1.6845275 0.2654433
H5 H 0.3038716 1.7432603 -0.2689186
H6 H 0.2051373 1.6808133 -0.283128
Co Co 0.5 1.98078(60) -0.25
Co Co 0.0 1.48078(60) -0.25
C7 C 0.3375583 2.8137094 0.00632297
C1 C 0.3938755 2.8921939 0.1492272
C2 C 0.400682 2.8451895 -0.145331
C3 C 0.3664667 2.8403242 0.004205273
C4 C 0.3086499 2.7870946 0.008440666
C5 C 0.2179993 2.7540035 0.1597422
C6 C 0.2766492 2.7910981 0.1681829
N2 N 0.449237 2.900066 -0.09272751
H1 H 0.3797655 2.9010756 0.2709974
H2 H 0.3921613 2.8154725 -0.2654433
H5 H 0.1961284 2.7567397 0.2689186
H6 H 0.2948627 2.8191867 0.283128
C7 C 0.1624417 2.6862906 -0.00632297
C1 C 0.1061245 2.6078061 -0.1492272
C2 C 0.099318 2.6548105 0.145331
C3 C 0.1335333 2.6596758 -0.004205273
C4 C 0.1913501 2.7129054 -0.008440666
C5 C 0.2820007 2.7459965 -0.1597422
C6 C 0.2233508 2.7089019 -0.1681829
N1 N 0.0549696 2.5708837 -0.08931948
H1 H 0.1202345 2.5989244 -0.2709974
H2 H 0.1078387 2.6845275 0.2654433
H5 H 0.3038716 2.7432603 -0.2689186
H6 H 0.2051373 2.6808133 -0.283128
Co Co 0.5 2.98078(60) -0.25
Co Co 0.0 2.48078(60) -0.25
C7 C 0.3375583 3.8137094 0.00632297
C1 C 0.3938755 3.8921939 0.1492272
C2 C 0.400682 3.8451895 -0.145331
C3 C 0.3664667 3.8403242 0.004205273
C4 C 0.3086499 3.7870946 0.008440666
C5 C 0.2179993 3.7540035 0.1597422
C6 C 0.2766492 3.7910981 0.1681829
N2 N 0.449237 3.900066 -0.09272751
H1 H 0.3797655 3.9010756 0.2709974
H2 H 0.3921613 3.8154725 -0.2654433
H5 H 0.1961284 3.7567397 0.2689186
H6 H 0.2948627 3.8191867 0.283128
C7 C 0.1624417 3.6862906 -0.00632297
C1 C 0.1061245 3.6078061 -0.1492272
C2 C 0.099318 3.6548105 0.145331
C3 C 0.1335333 3.6596758 -0.004205273
C4 C 0.1913501 3.7129054 -0.008440666
C5 C 0.2820007 3.7459965 -0.1597422
C6 C 0.2233508 3.7089019 -0.1681829
N1 N 0.0549696 3.5708837 -0.08931948
H1 H 0.1202345 3.5989244 -0.2709974
H2 H 0.1078387 3.6845275 0.2654433
H5 H 0.3038716 3.7432603 -0.2689186
H6 H 0.2051373 3.6808133 -0.283128
Co Co 0.5 3.98078(60) -0.25
Co Co 0.0 3.48078(60) -0.25
C7 C 1.3375583 0.8137094 0.00632297
C1 C 1.3938755 0.8921939 0.1492272
C2 C 1.400682 0.8451895 -0.145331
C3 C 1.3664667 0.8403242 0.004205273
C4 C 1.3086499 0.7870946 0.008440666
C5 C 1.2179993 0.7540035 0.1597422
C6 C 1.2766492 0.7910981 0.1681829
N2 N 1.449237 0.900066 -0.09272751
H1 H 1.3797655 0.9010756 0.2709974
H2 H 1.3921613 0.8154725 -0.2654433
H5 H 1.1961284 0.7567397 0.2689186
H6 H 1.2948627 0.8191867 0.283128
C7 C 1.1624417 0.6862906 -0.00632297
C1 C 1.1061245 0.6078061 -0.1492272
C2 C 1.099318 0.6548105 0.145331
C3 C 1.1335333 0.6596758 -0.004205273
C4 C 1.1913501 0.7129054 -0.008440666
C5 C 1.2820007 0.7459965 -0.1597422
C6 C 1.2233508 0.7089019 -0.1681829
N1 N 1.0549696 0.5708837 -0.08931948
H1 H 1.1202345 0.5989244 -0.2709974
H2 H 1.1078387 0.6845275 0.2654433
H5 H 1.3038716 0.7432603 -0.2689186
H6 H 1.2051373 0.6808133 -0.283128
Co Co 1.5 0.98078(60) -0.25
Co Co 1.0 0.48078(60) -0.25
C7 C 1.3375583 1.8137094 0.00632297
C1 C 1.3938755 1.8921939 0.1492272
C2 C 1.400682 1.8451895 -0.145331
C3 C 1.3664667 1.8403242 0.004205273
C4 C 1.3086499 1.7870946 0.008440666
C5 C 1.2179993 1.7540035 0.1597422
C6 C 1.2766492 1.7910981 0.1681829
N2 N 1.449237 1.900066 -0.09272751
H1 H 1.3797655 1.9010756 0.2709974
H2 H 1.3921613 1.8154725 -0.2654433
H5 H 1.1961284 1.7567397 0.2689186
H6 H 1.2948627 1.8191867 0.283128
C7 C 1.1624417 1.6862906 -0.00632297
C1 C 1.1061245 1.6078061 -0.1492272
C2 C 1.099318 1.6548105 0.145331
C3 C 1.1335333 1.6596758 -0.004205273
C4 C 1.1913501 1.7129054 -0.008440666
C5 C 1.2820007 1.7459965 -0.1597422
C6 C 1.2233508 1.7089019 -0.1681829
N1 N 1.0549696 1.5708837 -0.08931948
H1 H 1.1202345 1.5989244 -0.2709974
H2 H 1.1078387 1.6845275 0.2654433
H5 H 1.3038716 1.7432603 -0.2689186
H6 H 1.2051373 1.6808133 -0.283128
Co Co 1.5 1.98078(60) -0.25
Co Co 1.0 1.48078(60) -0.25
C7 C 1.3375583 2.8137094 0.00632297
C1 C 1.3938755 2.8921939 0.1492272
C2 C 1.400682 2.8451895 -0.145331
C3 C 1.3664667 2.8403242 0.004205273
C4 C 1.3086499 2.7870946 0.008440666
C5 C 1.2179993 2.7540035 0.1597422
C6 C 1.2766492 2.7910981 0.1681829
N2 N 1.449237 2.900066 -0.09272751
H1 H 1.3797655 2.9010756 0.2709974
H2 H 1.3921613 2.8154725 -0.2654433
H5 H 1.1961284 2.7567397 0.2689186
H6 H 1.2948627 2.8191867 0.283128
C7 C 1.1624417 2.6862906 -0.00632297
C1 C 1.1061245 2.6078061 -0.1492272
C2 C 1.099318 2.6548105 0.145331
C3 C 1.1335333 2.6596758 -0.004205273
C4 C 1.1913501 2.7129054 -0.008440666
C5 C 1.2820007 2.7459965 -0.1597422
C6 C 1.2233508 2.7089019 -0.1681829
N1 N 1.0549696 2.5708837 -0.08931948
H1 H 1.1202345 2.5989244 -0.2709974
H2 H 1.1078387 2.6845275 0.2654433
H5 H 1.3038716 2.7432603 -0.2689186
H6 H 1.2051373 2.6808133 -0.283128
Co Co 1.5 2.98078(60) -0.25
Co Co 1.0 2.48078(60) -0.25
C7 C 1.3375583 3.8137094 0.00632297
C1 C 1.3938755 3.8921939 0.1492272
C2 C 1.400682 3.8451895 -0.145331
C3 C 1.3664667 3.8403242 0.004205273
C4 C 1.3086499 3.7870946 0.008440666
C5 C 1.2179993 3.7540035 0.1597422
C6 C 1.2766492 3.7910981 0.1681829
N2 N 1.449237 3.900066 -0.09272751
H1 H 1.3797655 3.9010756 0.2709974
H2 H 1.3921613 3.8154725 -0.2654433
H5 H 1.1961284 3.7567397 0.2689186
H6 H 1.2948627 3.8191867 0.283128
C7 C 1.1624417 3.6862906 -0.00632297
C1 C 1.1061245 3.6078061 -0.1492272
C2 C 1.099318 3.6548105 0.145331
C3 C 1.1335333 3.6596758 -0.004205273
C4 C 1.1913501 3.7129054 -0.008440666
C5 C 1.2820007 3.7459965 -0.1597422
C6 C 1.2233508 3.7089019 -0.1681829
N1 N 1.0549696 3.5708837 -0.08931948
H1 H 1.1202345 3.5989244 -0.2709974
H2 H 1.1078387 3.6845275 0.2654433
H5 H 1.3038716 3.7432603 -0.2689186
H6 H 1.2051373 3.6808133 -0.283128
Co Co 1.5 3.98078(60) -0.25
Co Co 1.0 3.48078(60) -0.25
C7 C 2.3375583 0.8137094 0.00632297
C1 C 2.3938755 0.8921939 0.1492272
C2 C 2.400682 0.8451895 -0.145331
C3 C 2.3664667 0.8403242 0.004205273
C4 C 2.3086499 0.7870946 0.008440666
C5 C 2.2179993 0.7540035 0.1597422
C6 C 2.2766492 0.7910981 0.1681829
N2 N 2.449237 0.900066 -0.09272751
H1 H 2.3797655 0.9010756 0.2709974
H2 H 2.3921613 0.8154725 -0.2654433
H5 H 2.1961284 0.7567397 0.2689186
H6 H 2.2948627 0.8191867 0.283128
C7 C 2.1624417 0.6862906 -0.00632297
C1 C 2.1061245 0.6078061 -0.1492272
C2 C 2.099318 0.6548105 0.145331
C3 C 2.1335333 0.6596758 -0.004205273
C4 C 2.1913501 0.7129054 -0.008440666
C5 C 2.2820007 0.7459965 -0.1597422
C6 C 2.2233508 0.7089019 -0.1681829
N1 N 2.0549696 0.5708837 -0.08931948
H1 H 2.1202345 0.5989244 -0.2709974
H2 H 2.1078387 0.6845275 0.2654433
H5 H 2.3038716 0.7432603 -0.2689186
H6 H 2.2051373 0.6808133 -0.283128
Co Co 2.5 0.98078(60) -0.25
Co Co 2.0 0.48078(60) -0.25
C7 C 2.3375583 1.8137094 0.00632297
C1 C 2.3938755 1.8921939 0.1492272
C2 C 2.400682 1.8451895 -0.145331
C3 C 2.3664667 1.8403242 0.004205273
C4 C 2.3086499 1.7870946 0.008440666
C5 C 2.2179993 1.7540035 0.1597422
C6 C 2.2766492 1.7910981 0.1681829
N2 N 2.449237 1.900066 -0.09272751
H1 H 2.3797655 1.9010756 0.2709974
H2 H 2.3921613 1.8154725 -0.2654433
H5 H 2.1961284 1.7567397 0.2689186
H6 H 2.2948627 1.8191867 0.283128
C7 C 2.1624417 1.6862906 -0.00632297
C1 C 2.1061245 1.6078061 -0.1492272
C2 C 2.099318 1.6548105 0.145331
C3 C 2.1335333 1.6596758 -0.004205273
C4 C 2.1913501 1.7129054 -0.008440666
C5 C 2.2820007 1.7459965 -0.1597422
C6 C 2.2233508 1.7089019 -0.1681829
N1 N 2.0549696 1.5708837 -0.08931948
H1 H 2.1202345 1.5989244 -0.2709974
H2 H 2.1078387 1.6845275 0.2654433
H5 H 2.3038716 1.7432603 -0.2689186
H6 H 2.2051373 1.6808133 -0.283128
Co Co 2.5 1.98078(60) -0.25
Co Co 2.0 1.48078(60) -0.25
C7 C 2.3375583 2.8137094 0.00632297
C1 C 2.3938755 2.8921939 0.1492272
C2 C 2.400682 2.8451895 -0.145331
C3 C 2.3664667 2.8403242 0.004205273
C4 C 2.3086499 2.7870946 0.008440666
C5 C 2.2179993 2.7540035 0.1597422
C6 C 2.2766492 2.7910981 0.1681829
N2 N 2.449237 2.900066 -0.09272751
H1 H 2.3797655 2.9010756 0.2709974
H2 H 2.3921613 2.8154725 -0.2654433
H5 H 2.1961284 2.7567397 0.2689186
H6 H 2.2948627 2.8191867 0.283128
C7 C 2.1624417 2.6862906 -0.00632297
C1 C 2.1061245 2.6078061 -0.1492272
C2 C 2.099318 2.6548105 0.145331
C3 C 2.1335333 2.6596758 -0.004205273
C4 C 2.1913501 2.7129054 -0.008440666
C5 C 2.2820007 2.7459965 -0.1597422
C6 C 2.2233508 2.7089019 -0.1681829
N1 N 2.0549696 2.5708837 -0.08931948
H1 H 2.1202345 2.5989244 -0.2709974
H2 H 2.1078387 2.6845275 0.2654433
H5 H 2.3038716 2.7432603 -0.2689186
H6 H 2.2051373 2.6808133 -0.283128
Co Co 2.5 2.98078(60) -0.25
Co Co 2.0 2.48078(60) -0.25
C7 C 2.3375583 3.8137094 0.00632297
C1 C 2.3938755 3.8921939 0.1492272
C2 C 2.400682 3.8451895 -0.145331
C3 C 2.3664667 3.8403242 0.004205273
C4 C 2.3086499 3.7870946 0.008440666
C5 C 2.2179993 3.7540035 0.1597422
C6 C 2.2766492 3.7910981 0.1681829
N2 N 2.449237 3.900066 -0.09272751
H1 H 2.3797655 3.9010756 0.2709974
H2 H 2.3921613 3.8154725 -0.2654433
H5 H 2.1961284 3.7567397 0.2689186
H6 H 2.2948627 3.8191867 0.283128
C7 C 2.1624417 3.6862906 -0.00632297
C1 C 2.1061245 3.6078061 -0.1492272
C2 C 2.099318 3.6548105 0.145331
C3 C 2.1335333 3.6596758 -0.004205273
C4 C 2.1913501 3.7129054 -0.008440666
C5 C 2.2820007 3.7459965 -0.1597422
C6 C 2.2233508 3.7089019 -0.1681829
N1 N 2.0549696 3.5708837 -0.08931948
H1 H 2.1202345 3.5989244 -0.2709974
H2 H 2.1078387 3.6845275 0.2654433
H5 H 2.3038716 3.7432603 -0.2689186
H6 H 2.2051373 3.6808133 -0.283128
Co Co 2.5 3.98078(60) -0.25
Co Co 2.0 3.48078(60) -0.25
C7 C 3.3375583 0.8137094 0.00632297
C1 C 3.3938755 0.8921939 0.1492272
C2 C 3.400682 0.8451895 -0.145331
C3 C 3.3664667 0.8403242 0.004205273
C4 C 3.3086499 0.7870946 0.008440666
C5 C 3.2179993 0.7540035 0.1597422
C6 C 3.2766492 0.7910981 0.1681829
N2 N 3.449237 0.900066 -0.09272751
H1 H 3.3797655 0.9010756 0.2709974
H2 H 3.3921613 0.8154725 -0.2654433
H5 H 3.1961284 0.7567397 0.2689186
H6 H 3.2948627 0.8191867 0.283128
C7 C 3.1624417 0.6862906 -0.00632297
C1 C 3.1061245 0.6078061 -0.1492272
C2 C 3.099318 0.6548105 0.145331
C3 C 3.1335333 0.6596758 -0.004205273
C4 C 3.1913501 0.7129054 -0.008440666
C5 C 3.2820007 0.7459965 -0.1597422
C6 C 3.2233508 0.7089019 -0.1681829
N1 N 3.0549696 0.5708837 -0.08931948
H1 H 3.1202345 0.5989244 -0.2709974
H2 H 3.1078387 0.6845275 0.2654433
H5 H 3.3038716 0.7432603 -0.2689186
H6 H 3.2051373 0.6808133 -0.283128
Co Co 3.5 0.98078(60) -0.25
Co Co 3.0 0.48078(60) -0.25
C7 C 3.3375583 1.8137094 0.00632297
C1 C 3.3938755 1.8921939 0.1492272
C2 C 3.400682 1.8451895 -0.145331
C3 C 3.3664667 1.8403242 0.004205273
C4 C 3.3086499 1.7870946 0.008440666
C5 C 3.2179993 1.7540035 0.1597422
C6 C 3.2766492 1.7910981 0.1681829
N2 N 3.449237 1.900066 -0.09272751
H1 H 3.3797655 1.9010756 0.2709974
H2 H 3.3921613 1.8154725 -0.2654433
H5 H 3.1961284 1.7567397 0.2689186
H6 H 3.2948627 1.8191867 0.283128
C7 C 3.1624417 1.6862906 -0.00632297
C1 C 3.1061245 1.6078061 -0.1492272
C2 C 3.099318 1.6548105 0.145331
C3 C 3.1335333 1.6596758 -0.004205273
C4 C 3.1913501 1.7129054 -0.008440666
C5 C 3.2820007 1.7459965 -0.1597422
C6 C 3.2233508 1.7089019 -0.1681829
N1 N 3.0549696 1.5708837 -0.08931948
H1 H 3.1202345 1.5989244 -0.2709974
H2 H 3.1078387 1.6845275 0.2654433
H5 H 3.3038716 1.7432603 -0.2689186
H6 H 3.2051373 1.6808133 -0.283128
Co Co 3.5 1.98078(60) -0.25
Co Co 3.0 1.48078(60) -0.25
C7 C 3.3375583 2.8137094 0.00632297
C1 C 3.3938755 2.8921939 0.1492272
C2 C 3.400682 2.8451895 -0.145331
C3 C 3.3664667 2.8403242 0.004205273
C4 C 3.3086499 2.7870946 0.008440666
C5 C 3.2179993 2.7540035 0.1597422
C6 C 3.2766492 2.7910981 0.1681829
N2 N 3.449237 2.900066 -0.09272751
H1 H 3.3797655 2.9010756 0.2709974
H2 H 3.3921613 2.8154725 -0.2654433
H5 H 3.1961284 2.7567397 0.2689186
H6 H 3.2948627 2.8191867 0.283128
C7 C 3.1624417 2.6862906 -0.00632297
C1 C 3.1061245 2.6078061 -0.1492272
C2 C 3.099318 2.6548105 0.145331
C3 C 3.1335333 2.6596758 -0.004205273
C4 C 3.1913501 2.7129054 -0.008440666
C5 C 3.2820007 2.7459965 -0.1597422
C6 C 3.2233508 2.7089019 -0.1681829
N1 N 3.0549696 2.5708837 -0.08931948
H1 H 3.1202345 2.5989244 -0.2709974
H2 H 3.1078387 2.6845275 0.2654433
H5 H 3.3038716 2.7432603 -0.2689186
H6 H 3.2051373 2.6808133 -0.283128
Co Co 3.5 2.98078(60) -0.25
Co Co 3.0 2.48078(60) -0.25
C7 C 3.3375583 3.8137094 0.00632297
C1 C 3.3938755 3.8921939 0.1492272
C2 C 3.400682 3.8451895 -0.145331
C3 C 3.3664667 3.8403242 0.004205273
C4 C 3.3086499 3.7870946 0.008440666
C5 C 3.2179993 3.7540035 0.1597422
C6 C 3.2766492 3.7910981 0.1681829
N2 N 3.449237 3.900066 -0.09272751
H1 H 3.3797655 3.9010756 0.2709974
H2 H 3.3921613 3.8154725 -0.2654433
H5 H 3.1961284 3.7567397 0.2689186
H6 H 3.2948627 3.8191867 0.283128
C7 C 3.1624417 3.6862906 -0.00632297
C1 C 3.1061245 3.6078061 -0.1492272
C2 C 3.099318 3.6548105 0.145331
C3 C 3.1335333 3.6596758 -0.004205273
C4 C 3.1913501 3.7129054 -0.008440666
C5 C 3.2820007 3.7459965 -0.1597422
C6 C 3.2233508 3.7089019 -0.1681829
N1 N 3.0549696 3.5708837 -0.08931948
H1 H 3.1202345 3.5989244 -0.2709974
H2 H 3.1078387 3.6845275 0.2654433
H5 H 3.3038716 3.7432603 -0.2689186
H6 H 3.2051373 3.6808133 -0.283128
Co Co 3.5 3.98078(60) -0.25
Co Co 3.0 3.48078(60) -0.25
N1 N 4.0549696 0.5708837 0.91068052
N2 N 4.050763 0.400066 0.59272751
N1 N 4.0549696 0.5708837 1.91068052
N2 N 4.050763 0.400066 1.59272751
N1 N 4.0549696 0.5708837 2.91068052
N2 N 4.050763 0.400066 2.59272751
N1 N 4.0549696 0.5708837 3.91068052
N2 N 4.050763 0.400066 3.59272751
N1 N 4.0549696 1.5708837 0.91068052
N2 N 4.050763 1.400066 0.59272751
N1 N 4.0549696 1.5708837 1.91068052
N2 N 4.050763 1.400066 1.59272751
N1 N 4.0549696 1.5708837 2.91068052
N2 N 4.050763 1.400066 2.59272751
N1 N 4.0549696 1.5708837 3.91068052
N2 N 4.050763 1.400066 3.59272751
N1 N 4.0549696 2.5708837 0.91068052
N2 N 4.050763 2.400066 0.59272751
N1 N 4.0549696 2.5708837 1.91068052
N2 N 4.050763 2.400066 1.59272751
N1 N 4.0549696 2.5708837 2.91068052
N2 N 4.050763 2.400066 2.59272751
N1 N 4.0549696 2.5708837 3.91068052
N2 N 4.050763 2.400066 3.59272751
N1 N 4.0549696 3.5708837 0.91068052
N2 N 4.050763 3.400066 0.59272751
N1 N 4.0549696 3.5708837 1.91068052
N2 N 4.050763 3.400066 1.59272751
N1 N 4.0549696 3.5708837 2.91068052
N2 N 4.050763 3.400066 2.59272751
N1 N 4.0549696 3.5708837 3.91068052
N2 N 4.050763 3.400066 3.59272751
C7 C 0.8375583 0.3137094 0.00632297
C1 C 0.8938755 0.3921939 0.1492272
C2 C 0.900682 0.3451895 -0.145331
C3 C 0.8664667 0.3403242 0.004205273
C4 C 0.8086499 0.2870946 0.008440666
C5 C 0.7179993 0.2540035 0.1597422
C6 C 0.7766492 0.2910981 0.1681829
N2 N 0.949237 0.400066 -0.09272751
H1 H 0.8797655 0.4010756 0.2709974
H2 H 0.8921613 0.3154725 -0.2654433
H5 H 0.6961284 0.2567397 0.2689186
H6 H 0.7948627 0.3191867 0.283128
C7 C 0.6624417 0.1862906 -0.00632297
C1 C 0.6061245 0.1078061 -0.1492272
C2 C 0.599318 0.1548105 0.145331
C3 C 0.6335333 0.1596758 -0.004205273
C4 C 0.6913501 0.2129054 -0.008440666
C5 C 0.7820007 0.2459965 -0.1597422
C6 C 0.7233508 0.2089019 -0.1681829
N1 N 0.5549696 0.0708837 -0.08931948
N2 N 0.550763 0.099934 0.09272751
H1 H 0.6202345 0.0989244 -0.2709974
H2 H 0.6078387 0.1845275 0.2654433
H5 H 0.8038716 0.2432603 -0.2689186
H6 H 0.7051373 0.1808133 -0.283128
Co Co 0.5 -0.01922(60) -0.25
C7 C 0.8375583 1.3137094 0.00632297
C1 C 0.8938755 1.3921939 0.1492272
C2 C 0.900682 1.3451895 -0.145331
C3 C 0.8664667 1.3403242 0.004205273
C4 C 0.8086499 1.2870946 0.008440666
C5 C 0.7179993 1.2540035 0.1597422
C6 C 0.7766492 1.2910981 0.1681829
N2 N 0.949237 1.400066 -0.09272751
H1 H 0.8797655 1.4010756 0.2709974
H2 H 0.8921613 1.3154725 -0.2654433
H5 H 0.6961284 1.2567397 0.2689186
H6 H 0.7948627 1.3191867 0.283128
C7 C 0.6624417 1.1862906 -0.00632297
C1 C 0.6061245 1.1078061 -0.1492272
C2 C 0.599318 1.1548105 0.145331
C3 C 0.6335333 1.1596758 -0.004205273
C4 C 0.6913501 1.2129054 -0.008440666
C5 C 0.7820007 1.2459965 -0.1597422
C6 C 0.7233508 1.2089019 -0.1681829
N1 N 0.5549696 1.0708837 -0.08931948
H1 H 0.6202345 1.0989244 -0.2709974
H2 H 0.6078387 1.1845275 0.2654433
H5 H 0.8038716 1.2432603 -0.2689186
H6 H 0.7051373 1.1808133 -0.283128
C7 C 0.8375583 2.3137094 0.00632297
C1 C 0.8938755 2.3921939 0.1492272
C2 C 0.900682 2.3451895 -0.145331
C3 C 0.8664667 2.3403242 0.004205273
C4 C 0.8086499 2.2870946 0.008440666
C5 C 0.7179993 2.2540035 0.1597422
C6 C 0.7766492 2.2910981 0.1681829
N2 N 0.949237 2.400066 -0.09272751
H1 H 0.8797655 2.4010756 0.2709974
H2 H 0.8921613 2.3154725 -0.2654433
H5 H 0.6961284 2.2567397 0.2689186
H6 H 0.7948627 2.3191867 0.283128
C7 C 0.6624417 2.1862906 -0.00632297
C1 C 0.6061245 2.1078061 -0.1492272
C2 C 0.599318 2.1548105 0.145331
C3 C 0.6335333 2.1596758 -0.004205273
C4 C 0.6913501 2.2129054 -0.008440666
C5 C 0.7820007 2.2459965 -0.1597422
C6 C 0.7233508 2.2089019 -0.1681829
N1 N 0.5549696 2.0708837 -0.08931948
H1 H 0.6202345 2.0989244 -0.2709974
H2 H 0.6078387 2.1845275 0.2654433
H5 H 0.8038716 2.2432603 -0.2689186
H6 H 0.7051373 2.1808133 -0.283128
C7 C 0.8375583 3.3137094 0.00632297
C1 C 0.8938755 3.3921939 0.1492272
C2 C 0.900682 3.3451895 -0.145331
C3 C 0.8664667 3.3403242 0.004205273
C4 C 0.8086499 3.2870946 0.008440666
C5 C 0.7179993 3.2540035 0.1597422
C6 C 0.7766492 3.2910981 0.1681829
N2 N 0.949237 3.400066 -0.09272751
H1 H 0.8797655 3.4010756 0.2709974
H2 H 0.8921613 3.3154725 -0.2654433
H5 H 0.6961284 3.2567397 0.2689186
H6 H 0.7948627 3.3191867 0.283128
C7 C 0.6624417 3.1862906 -0.00632297
C1 C 0.6061245 3.1078061 -0.1492272
C2 C 0.599318 3.1548105 0.145331
C3 C 0.6335333 3.1596758 -0.004205273
C4 C 0.6913501 3.2129054 -0.008440666
C5 C 0.7820007 3.2459965 -0.1597422
C6 C 0.7233508 3.2089019 -0.1681829
N1 N 0.5549696 3.0708837 -0.08931948
H1 H 0.6202345 3.0989244 -0.2709974
H2 H 0.6078387 3.1845275 0.2654433
H5 H 0.8038716 3.2432603 -0.2689186
H6 H 0.7051373 3.1808133 -0.283128
C7 C 1.8375583 0.3137094 0.00632297
C1 C 1.8938755 0.3921939 0.1492272
C2 C 1.900682 0.3451895 -0.145331
C3 C 1.8664667 0.3403242 0.004205273
C4 C 1.8086499 0.2870946 0.008440666
C5 C 1.7179993 0.2540035 0.1597422
C6 C 1.7766492 0.2910981 0.1681829
N2 N 1.949237 0.400066 -0.09272751
H1 H 1.8797655 0.4010756 0.2709974
H2 H 1.8921613 0.3154725 -0.2654433
H5 H 1.6961284 0.2567397 0.2689186
H6 H 1.7948627 0.3191867 0.283128
C7 C 1.6624417 0.1862906 -0.00632297
C1 C 1.6061245 0.1078061 -0.1492272
C2 C 1.599318 0.1548105 0.145331
C3 C 1.6335333 0.1596758 -0.004205273
C4 C 1.6913501 0.2129054 -0.008440666
C5 C 1.7820007 0.2459965 -0.1597422
C6 C 1.7233508 0.2089019 -0.1681829
N1 N 1.5549696 0.0708837 -0.08931948
N2 N 1.550763 0.099934 0.09272751
H1 H 1.6202345 0.0989244 -0.2709974
H2 H 1.6078387 0.1845275 0.2654433
H5 H 1.8038716 0.2432603 -0.2689186
H6 H 1.7051373 0.1808133 -0.283128
Co Co 1.5 -0.01922(60) -0.25
C7 C 1.8375583 1.3137094 0.00632297
C1 C 1.8938755 1.3921939 0.1492272
C2 C 1.900682 1.3451895 -0.145331
C3 C 1.8664667 1.3403242 0.004205273
C4 C 1.8086499 1.2870946 0.008440666
C5 C 1.7179993 1.2540035 0.1597422
C6 C 1.7766492 1.2910981 0.1681829
N2 N 1.949237 1.400066 -0.09272751
H1 H 1.8797655 1.4010756 0.2709974
H2 H 1.8921613 1.3154725 -0.2654433
H5 H 1.6961284 1.2567397 0.2689186
H6 H 1.7948627 1.3191867 0.283128
C7 C 1.6624417 1.1862906 -0.00632297
C1 C 1.6061245 1.1078061 -0.1492272
C2 C 1.599318 1.1548105 0.145331
C3 C 1.6335333 1.1596758 -0.004205273
C4 C 1.6913501 1.2129054 -0.008440666
C5 C 1.7820007 1.2459965 -0.1597422
C6 C 1.7233508 1.2089019 -0.1681829
N1 N 1.5549696 1.0708837 -0.08931948
H1 H 1.6202345 1.0989244 -0.2709974
H2 H 1.6078387 1.1845275 0.2654433
H5 H 1.8038716 1.2432603 -0.2689186
H6 H 1.7051373 1.1808133 -0.283128
C7 C 1.8375583 2.3137094 0.00632297
C1 C 1.8938755 2.3921939 0.1492272
C2 C 1.900682 2.3451895 -0.145331
C3 C 1.8664667 2.3403242 0.004205273
C4 C 1.8086499 2.2870946 0.008440666
C5 C 1.7179993 2.2540035 0.1597422
C6 C 1.7766492 2.2910981 0.1681829
N2 N 1.949237 2.400066 -0.09272751
H1 H 1.8797655 2.4010756 0.2709974
H2 H 1.8921613 2.3154725 -0.2654433
H5 H 1.6961284 2.2567397 0.2689186
H6 H 1.7948627 2.3191867 0.283128
C7 C 1.6624417 2.1862906 -0.00632297
C1 C 1.6061245 2.1078061 -0.1492272
C2 C 1.599318 2.1548105 0.145331
C3 C 1.6335333 2.1596758 -0.004205273
C4 C 1.6913501 2.2129054 -0.008440666
C5 C 1.7820007 2.2459965 -0.1597422
C6 C 1.7233508 2.2089019 -0.1681829
N1 N 1.5549696 2.0708837 -0.08931948
H1 H 1.6202345 2.0989244 -0.2709974
H2 H 1.6078387 2.1845275 0.2654433
H5 H 1.8038716 2.2432603 -0.2689186
H6 H 1.7051373 2.1808133 -0.283128
C7 C 1.8375583 3.3137094 0.00632297
C1 C 1.8938755 3.3921939 0.1492272
C2 C 1.900682 3.3451895 -0.145331
C3 C 1.8664667 3.3403242 0.004205273
C4 C 1.8086499 3.2870946 0.008440666
C5 C 1.7179993 3.2540035 0.1597422
C6 C 1.7766492 3.2910981 0.1681829
N2 N 1.949237 3.400066 -0.09272751
H1 H 1.8797655 3.4010756 0.2709974
H2 H 1.8921613 3.3154725 -0.2654433
H5 H 1.6961284 3.2567397 0.2689186
H6 H 1.7948627 3.3191867 0.283128
C7 C 1.6624417 3.1862906 -0.00632297
C1 C 1.6061245 3.1078061 -0.1492272
C2 C 1.599318 3.1548105 0.145331
C3 C 1.6335333 3.1596758 -0.004205273
C4 C 1.6913501 3.2129054 -0.008440666
C5 C 1.7820007 3.2459965 -0.1597422
C6 C 1.7233508 3.2089019 -0.1681829
N1 N 1.5549696 3.0708837 -0.08931948
H1 H 1.6202345 3.0989244 -0.2709974
H2 H 1.6078387 3.1845275 0.2654433
H5 H 1.8038716 3.2432603 -0.2689186
H6 H 1.7051373 3.1808133 -0.283128
C7 C 2.8375583 0.3137094 0.00632297
C1 C 2.8938755 0.3921939 0.1492272
C2 C 2.900682 0.3451895 -0.145331
C3 C 2.8664667 0.3403242 0.004205273
C4 C 2.8086499 0.2870946 0.008440666
C5 C 2.7179993 0.2540035 0.1597422
C6 C 2.7766492 0.2910981 0.1681829
N2 N 2.949237 0.400066 -0.09272751
H1 H 2.8797655 0.4010756 0.2709974
H2 H 2.8921613 0.3154725 -0.2654433
H5 H 2.6961284 0.2567397 0.2689186
H6 H 2.7948627 0.3191867 0.283128
C7 C 2.6624417 0.1862906 -0.00632297
C1 C 2.6061245 0.1078061 -0.1492272
C2 C 2.599318 0.1548105 0.145331
C3 C 2.6335333 0.1596758 -0.004205273
C4 C 2.6913501 0.2129054 -0.008440666
C5 C 2.7820007 0.2459965 -0.1597422
C6 C 2.7233508 0.2089019 -0.1681829
N1 N 2.5549696 0.0708837 -0.08931948
N2 N 2.550763 0.099934 0.09272751
H1 H 2.6202345 0.0989244 -0.2709974
H2 H 2.6078387 0.1845275 0.2654433
H5 H 2.8038716 0.2432603 -0.2689186
H6 H 2.7051373 0.1808133 -0.283128
Co Co 2.5 -0.01922(60) -0.25
C7 C 2.8375583 1.3137094 0.00632297
C1 C 2.8938755 1.3921939 0.1492272
C2 C 2.900682 1.3451895 -0.145331
C3 C 2.8664667 1.3403242 0.004205273
C4 C 2.8086499 1.2870946 0.008440666
C5 C 2.7179993 1.2540035 0.1597422
C6 C 2.7766492 1.2910981 0.1681829
N2 N 2.949237 1.400066 -0.09272751
H1 H 2.8797655 1.4010756 0.2709974
H2 H 2.8921613 1.3154725 -0.2654433
H5 H 2.6961284 1.2567397 0.2689186
H6 H 2.7948627 1.3191867 0.283128
C7 C 2.6624417 1.1862906 -0.00632297
C1 C 2.6061245 1.1078061 -0.1492272
C2 C 2.599318 1.1548105 0.145331
C3 C 2.6335333 1.1596758 -0.004205273
C4 C 2.6913501 1.2129054 -0.008440666
C5 C 2.7820007 1.2459965 -0.1597422
C6 C 2.7233508 1.2089019 -0.1681829
N1 N 2.5549696 1.0708837 -0.08931948
H1 H 2.6202345 1.0989244 -0.2709974
H2 H 2.6078387 1.1845275 0.2654433
H5 H 2.8038716 1.2432603 -0.2689186
H6 H 2.7051373 1.1808133 -0.283128
C7 C 2.8375583 2.3137094 0.00632297
C1 C 2.8938755 2.3921939 0.1492272
C2 C 2.900682 2.3451895 -0.145331
C3 C 2.8664667 2.3403242 0.004205273
C4 C 2.8086499 2.2870946 0.008440666
C5 C 2.7179993 2.2540035 0.1597422
C6 C 2.7766492 2.2910981 0.1681829
N2 N 2.949237 2.400066 -0.09272751
H1 H 2.8797655 2.4010756 0.2709974
H2 H 2.8921613 2.3154725 -0.2654433
H5 H 2.6961284 2.2567397 0.2689186
H6 H 2.7948627 2.3191867 0.283128
C7 C 2.6624417 2.1862906 -0.00632297
C1 C 2.6061245 2.1078061 -0.1492272
C2 C 2.599318 2.1548105 0.145331
C3 C 2.6335333 2.1596758 -0.004205273
C4 C 2.6913501 2.2129054 -0.008440666
C5 C 2.7820007 2.2459965 -0.1597422
C6 C 2.7233508 2.2089019 -0.1681829
N1 N 2.5549696 2.0708837 -0.08931948
H1 H 2.6202345 2.0989244 -0.2709974
H2 H 2.6078387 2.1845275 0.2654433
H5 H 2.8038716 2.2432603 -0.2689186
H6 H 2.7051373 2.1808133 -0.283128
C7 C 2.8375583 3.3137094 0.00632297
C1 C 2.8938755 3.3921939 0.1492272
C2 C 2.900682 3.3451895 -0.145331
C3 C 2.8664667 3.3403242 0.004205273
C4 C 2.8086499 3.2870946 0.008440666
C5 C 2.7179993 3.2540035 0.1597422
C6 C 2.7766492 3.2910981 0.1681829
N2 N 2.949237 3.400066 -0.09272751
H1 H 2.8797655 3.4010756 0.2709974
H2 H 2.8921613 3.3154725 -0.2654433
H5 H 2.6961284 3.2567397 0.2689186
H6 H 2.7948627 3.3191867 0.283128
C7 C 2.6624417 3.1862906 -0.00632297
C1 C 2.6061245 3.1078061 -0.1492272
C2 C 2.599318 3.1548105 0.145331
C3 C 2.6335333 3.1596758 -0.004205273
C4 C 2.6913501 3.2129054 -0.008440666
C5 C 2.7820007 3.2459965 -0.1597422
C6 C 2.7233508 3.2089019 -0.1681829
N1 N 2.5549696 3.0708837 -0.08931948
H1 H 2.6202345 3.0989244 -0.2709974
H2 H 2.6078387 3.1845275 0.2654433
H5 H 2.8038716 3.2432603 -0.2689186
H6 H 2.7051373 3.1808133 -0.283128
C7 C 3.8375583 0.3137094 0.00632297
C1 C 3.8938755 0.3921939 0.1492272
C2 C 3.900682 0.3451895 -0.145331
C3 C 3.8664667 0.3403242 0.004205273
C4 C 3.8086499 0.2870946 0.008440666
C5 C 3.7179993 0.2540035 0.1597422
C6 C 3.7766492 0.2910981 0.1681829
N1 N 3.9450304 0.4291163 0.08931948
N2 N 3.949237 0.400066 -0.09272751
H1 H 3.8797655 0.4010756 0.2709974
H2 H 3.8921613 0.3154725 -0.2654433
H5 H 3.6961284 0.2567397 0.2689186
H6 H 3.7948627 0.3191867 0.283128
C7 C 3.6624417 0.1862906 -0.00632297
C1 C 3.6061245 0.1078061 -0.1492272
C2 C 3.599318 0.1548105 0.145331
C3 C 3.6335333 0.1596758 -0.004205273
C4 C 3.6913501 0.2129054 -0.008440666
C5 C 3.7820007 0.2459965 -0.1597422
C6 C 3.7233508 0.2089019 -0.1681829
N1 N 3.5549696 0.0708837 -0.08931948
N2 N 3.550763 0.099934 0.09272751
H1 H 3.6202345 0.0989244 -0.2709974
H2 H 3.6078387 0.1845275 0.2654433
H5 H 3.8038716 0.2432603 -0.2689186
H6 H 3.7051373 0.1808133 -0.283128
N1 N 4.0549696 0.4291163 0.41068052
N2 N 4.050763 0.599934 0.09272751
Co Co 4.0 0.48078(60) -0.25
Co Co 3.5 -0.01922(60) -0.25
N1 N 4.0549696 0.4291163 1.41068052
N2 N 4.050763 0.599934 1.09272751
N1 N 4.0549696 0.4291163 2.41068052
N2 N 4.050763 0.599934 2.09272751
N1 N 4.0549696 0.4291163 3.41068052
N2 N 4.050763 0.599934 3.09272751
C7 C 3.8375583 1.3137094 0.00632297
C1 C 3.8938755 1.3921939 0.1492272
C2 C 3.900682 1.3451895 -0.145331
C3 C 3.8664667 1.3403242 0.004205273
C4 C 3.8086499 1.2870946 0.008440666
C5 C 3.7179993 1.2540035 0.1597422
C6 C 3.7766492 1.2910981 0.1681829
N1 N 3.9450304 1.4291163 0.08931948
N2 N 3.949237 1.400066 -0.09272751
H1 H 3.8797655 1.4010756 0.2709974
H2 H 3.8921613 1.3154725 -0.2654433
H5 H 3.6961284 1.2567397 0.2689186
H6 H 3.7948627 1.3191867 0.283128
C7 C 3.6624417 1.1862906 -0.00632297
C1 C 3.6061245 1.1078061 -0.1492272
C2 C 3.599318 1.1548105 0.145331
C3 C 3.6335333 1.1596758 -0.004205273
C4 C 3.6913501 1.2129054 -0.008440666
C5 C 3.7820007 1.2459965 -0.1597422
C6 C 3.7233508 1.2089019 -0.1681829
N1 N 3.5549696 1.0708837 -0.08931948
H1 H 3.6202345 1.0989244 -0.2709974
H2 H 3.6078387 1.1845275 0.2654433
H5 H 3.8038716 1.2432603 -0.2689186
H6 H 3.7051373 1.1808133 -0.283128
N1 N 4.0549696 1.4291163 0.41068052
N2 N 4.050763 1.599934 0.09272751
Co Co 4.0 1.48078(60) -0.25
N1 N 4.0549696 1.4291163 1.41068052
N2 N 4.050763 1.599934 1.09272751
N1 N 4.0549696 1.4291163 2.41068052
N2 N 4.050763 1.599934 2.09272751
N1 N 4.0549696 1.4291163 3.41068052
N2 N 4.050763 1.599934 3.09272751
C7 C 3.8375583 2.3137094 0.00632297
C1 C 3.8938755 2.3921939 0.1492272
C2 C 3.900682 2.3451895 -0.145331
C3 C 3.8664667 2.3403242 0.004205273
C4 C 3.8086499 2.2870946 0.008440666
C5 C 3.7179993 2.2540035 0.1597422
C6 C 3.7766492 2.2910981 0.1681829
N1 N 3.9450304 2.4291163 0.08931948
N2 N 3.949237 2.400066 -0.09272751
H1 H 3.8797655 2.4010756 0.2709974
H2 H 3.8921613 2.3154725 -0.2654433
H5 H 3.6961284 2.2567397 0.2689186
H6 H 3.7948627 2.3191867 0.283128
C7 C 3.6624417 2.1862906 -0.00632297
C1 C 3.6061245 2.1078061 -0.1492272
C2 C 3.599318 2.1548105 0.145331
C3 C 3.6335333 2.1596758 -0.004205273
C4 C 3.6913501 2.2129054 -0.008440666
C5 C 3.7820007 2.2459965 -0.1597422
C6 C 3.7233508 2.2089019 -0.1681829
N1 N 3.5549696 2.0708837 -0.08931948
H1 H 3.6202345 2.0989244 -0.2709974
H2 H 3.6078387 2.1845275 0.2654433
H5 H 3.8038716 2.2432603 -0.2689186
H6 H 3.7051373 2.1808133 -0.283128
N1 N 4.0549696 2.4291163 0.41068052
N2 N 4.050763 2.599934 0.09272751
Co Co 4.0 2.48078(60) -0.25
N1 N 4.0549696 2.4291163 1.41068052
N2 N 4.050763 2.599934 1.09272751
N1 N 4.0549696 2.4291163 2.41068052
N2 N 4.050763 2.599934 2.09272751
N1 N 4.0549696 2.4291163 3.41068052
N2 N 4.050763 2.599934 3.09272751
C7 C 3.8375583 3.3137094 0.00632297
C1 C 3.8938755 3.3921939 0.1492272
C2 C 3.900682 3.3451895 -0.145331
C3 C 3.8664667 3.3403242 0.004205273
C4 C 3.8086499 3.2870946 0.008440666
C5 C 3.7179993 3.2540035 0.1597422
C6 C 3.7766492 3.2910981 0.1681829
N1 N 3.9450304 3.4291163 0.08931948
N2 N 3.949237 3.400066 -0.09272751
H1 H 3.8797655 3.4010756 0.2709974
H2 H 3.8921613 3.3154725 -0.2654433
H5 H 3.6961284 3.2567397 0.2689186
H6 H 3.7948627 3.3191867 0.283128
C7 C 3.6624417 3.1862906 -0.00632297
C1 C 3.6061245 3.1078061 -0.1492272
C2 C 3.599318 3.1548105 0.145331
C3 C 3.6335333 3.1596758 -0.004205273
C4 C 3.6913501 3.2129054 -0.008440666
C5 C 3.7820007 3.2459965 -0.1597422
C6 C 3.7233508 3.2089019 -0.1681829
N1 N 3.5549696 3.0708837 -0.08931948
H1 H 3.6202345 3.0989244 -0.2709974
H2 H 3.6078387 3.1845275 0.2654433
H5 H 3.8038716 3.2432603 -0.2689186
H6 H 3.7051373 3.1808133 -0.283128
N1 N 4.0549696 3.4291163 0.41068052
N2 N 4.050763 3.599934 0.09272751
Co Co 4.0 3.48078(60) -0.25
N1 N 4.0549696 3.4291163 1.41068052
N2 N 4.050763 3.599934 1.09272751
N1 N 4.0549696 3.4291163 2.41068052
N2 N 4.050763 3.599934 2.09272751
N1 N 4.0549696 3.4291163 3.41068052
N2 N 4.050763 3.599934 3.09272751

#END
