data_Cod4bdp-collapsed
_audit_creation_date              2020-08-03
_audit_creation_method            'Materials Studio'
_symmetry_space_group_name_H-M    'P1'
_symmetry_Int_Tables_number       1
_symmetry_cell_setting            triclinic
loop_
_symmetry_equiv_pos_as_xyz
  x,y,z
_cell_length_a                    98.7480
_cell_length_b                    26.6700
_cell_length_c                    28.3652
_cell_angle_alpha                 90.0000
_cell_angle_beta                  92.4090
_cell_angle_gamma                 90.0000
loop_
_atom_site_label
_atom_site_type_symbol
_atom_site_fract_x
_atom_site_fract_y
_atom_site_fract_z
_atom_site_U_iso_or_equiv
_atom_site_adp_type
_atom_site_occupancy
C1     C     0.19520   0.22050   0.14950   0.00000  Uiso   1.00
C2     C     0.18110   0.21975   0.15350   0.00000  Uiso   1.00
C3     C     0.17235   0.18650   0.12900   0.00000  Uiso   1.00
C4     C     0.15730   0.19675   0.12625   0.00000  Uiso   1.00
C5     C     0.15000   0.22150   0.16000   0.00000  Uiso   1.00
C6     C     0.14800   0.17800   0.09200   0.00000  Uiso   1.00
N7     N     0.13598   0.22000   0.15025   0.00000  Uiso   1.00
N8     N     0.13480   0.19450   0.09950   0.00000  Uiso   1.00
H9     H     0.20235   0.00065   0.16700   0.00000  Uiso   1.00
H10    H     0.17758   0.00310   0.17325   0.00000  Uiso   1.00
H11    H     0.15560   0.24150   0.19100   0.00000  Uiso   1.00
H12    H     0.15185   0.15225   0.06825   0.00000  Uiso   1.00
C13    C     0.07020   0.09550   0.14950   0.00000  Uiso   1.00
C14    C     0.05610   0.09475   0.15350   0.00000  Uiso   1.00
C15    C     0.04735   0.06150   0.12900   0.00000  Uiso   1.00
C16    C     0.03230   0.07175   0.12625   0.00000  Uiso   1.00
C17    C     0.02500   0.09650   0.16000   0.00000  Uiso   1.00
C18    C     0.02300   0.05300   0.09200   0.00000  Uiso   1.00
N19    N     0.01098   0.09500   0.15025   0.00000  Uiso   1.00
N20    N     0.00980   0.06950   0.09950   0.00000  Uiso   1.00
H21    H     0.07735   0.12565   0.16700   0.00000  Uiso   1.00
H22    H     0.05258   0.12810   0.17325   0.00000  Uiso   1.00
H23    H     0.03060   0.11650   0.19100   0.00000  Uiso   1.00
H24    H     0.02685   0.02725   0.06825   0.00000  Uiso   1.00
C25    C     0.05480   0.22050   0.22550   0.00000  Uiso   1.00
C26    C     0.06890   0.21975   0.22150   0.00000  Uiso   1.00
C27    C     0.07765   0.18650   0.24600   0.00000  Uiso   1.00
C28    C     0.09270   0.19675   0.24875   0.00000  Uiso   1.00
C29    C     0.10000   0.22150   0.21500   0.00000  Uiso   1.00
C30    C     0.10200   0.17800   0.03300   0.00000  Uiso   1.00
N31    N     0.11403   0.22000   0.22475   0.00000  Uiso   1.00
N32    N     0.11520   0.19450   0.02550   0.00000  Uiso   1.00
H33    H     0.04765   0.00065   0.20800   0.00000  Uiso   1.00
H34    H     0.07243   0.00310   0.20175   0.00000  Uiso   1.00
H35    H     0.09440   0.24150   0.18400   0.00000  Uiso   1.00
H36    H     0.09815   0.15225   0.05675   0.00000  Uiso   1.00
C37    C     0.17980   0.09550   0.22550   0.00000  Uiso   1.00
C38    C     0.19390   0.09475   0.22150   0.00000  Uiso   1.00
C39    C     0.20265   0.06150   0.24600   0.00000  Uiso   1.00
C40    C     0.21770   0.07175   0.24875   0.00000  Uiso   1.00
C41    C     0.22500   0.09650   0.21500   0.00000  Uiso   1.00
C42    C     0.22700   0.05300   0.03300   0.00000  Uiso   1.00
N43    N     0.23902   0.09500   0.22475   0.00000  Uiso   1.00
N44    N     0.24020   0.06950   0.02550   0.00000  Uiso   1.00
H45    H     0.17265   0.12565   0.20800   0.00000  Uiso   1.00
H46    H     0.19742   0.12810   0.20175   0.00000  Uiso   1.00
H47    H     0.21940   0.11650   0.18400   0.00000  Uiso   1.00
H48    H     0.22315   0.02725   0.05675   0.00000  Uiso   1.00
C49    C     0.05480   0.02950   0.10050   0.00000  Uiso   1.00
C50    C     0.06890   0.03025   0.09650   0.00000  Uiso   1.00
C51    C     0.07765   0.06350   0.12100   0.00000  Uiso   1.00
C52    C     0.09270   0.05325   0.12375   0.00000  Uiso   1.00
C53    C     0.10000   0.02850   0.09000   0.00000  Uiso   1.00
C54    C     0.10200   0.07200   0.15800   0.00000  Uiso   1.00
N55    N     0.11403   0.03000   0.09975   0.00000  Uiso   1.00
N56    N     0.11520   0.05550   0.15050   0.00000  Uiso   1.00
H57    H     0.04765   0.24935   0.08300   0.00000  Uiso   1.00
H58    H     0.07243   0.24690   0.07675   0.00000  Uiso   1.00
H59    H     0.09440   0.00850   0.05900   0.00000  Uiso   1.00
H60    H     0.09815   0.09775   0.18175   0.00000  Uiso   1.00
C61    C     0.17980   0.15450   0.10050   0.00000  Uiso   1.00
C62    C     0.19390   0.15525   0.09650   0.00000  Uiso   1.00
C63    C     0.20265   0.18850   0.12100   0.00000  Uiso   1.00
C64    C     0.21770   0.17825   0.12375   0.00000  Uiso   1.00
C65    C     0.22500   0.15350   0.09000   0.00000  Uiso   1.00
C66    C     0.22700   0.19700   0.15800   0.00000  Uiso   1.00
N67    N     0.23902   0.15500   0.09975   0.00000  Uiso   1.00
N68    N     0.24020   0.18050   0.15050   0.00000  Uiso   1.00
H69    H     0.17265   0.12435   0.08300   0.00000  Uiso   1.00
H70    H     0.19742   0.12190   0.07675   0.00000  Uiso   1.00
H71    H     0.21940   0.13350   0.05900   0.00000  Uiso   1.00
H72    H     0.22315   0.22275   0.18175   0.00000  Uiso   1.00
C73    C     0.19520   0.02950   0.02450   0.00000  Uiso   1.00
C74    C     0.18110   0.03025   0.02850   0.00000  Uiso   1.00
C75    C     0.17235   0.06350   0.00400   0.00000  Uiso   1.00
C76    C     0.15730   0.05325   0.00125   0.00000  Uiso   1.00
C77    C     0.15000   0.02850   0.03500   0.00000  Uiso   1.00
C78    C     0.14800   0.07200   0.21700   0.00000  Uiso   1.00
N79    N     0.13598   0.03000   0.02525   0.00000  Uiso   1.00
N80    N     0.13480   0.05550   0.22450   0.00000  Uiso   1.00
H81    H     0.20235   0.24935   0.04200   0.00000  Uiso   1.00
H82    H     0.17758   0.24690   0.04825   0.00000  Uiso   1.00
H83    H     0.15560   0.00850   0.06600   0.00000  Uiso   1.00
H84    H     0.15185   0.09775   0.19325   0.00000  Uiso   1.00
C85    C     0.07020   0.15450   0.02450   0.00000  Uiso   1.00
C86    C     0.05610   0.15525   0.02850   0.00000  Uiso   1.00
C87    C     0.04735   0.18850   0.00400   0.00000  Uiso   1.00
C88    C     0.03230   0.17825   0.00125   0.00000  Uiso   1.00
C89    C     0.02500   0.15350   0.03500   0.00000  Uiso   1.00
C90    C     0.02300   0.19700   0.21700   0.00000  Uiso   1.00
N91    N     0.01098   0.15500   0.02525   0.00000  Uiso   1.00
N92    N     0.00980   0.18050   0.22450   0.00000  Uiso   1.00
H93    H     0.07735   0.12435   0.04200   0.00000  Uiso   1.00
H94    H     0.05258   0.12190   0.04825   0.00000  Uiso   1.00
H95    H     0.03060   0.13350   0.06600   0.00000  Uiso   1.00
H96    H     0.02685   0.22275   0.19325   0.00000  Uiso   1.00
Co97   Co    0.12500   0.00860   0.18750   0.00000  Uiso   1.00
Co98   Co    0.00000   0.13360   0.18750   0.00000  Uiso   1.00
Co99   Co    0.12500   0.24140   0.06250   0.00000  Uiso   1.00
Co100  Co    0.00000   0.11640   0.06250   0.00000  Uiso   1.00
C101   C     0.44520   0.22050   0.14950   0.00000  Uiso   1.00
C102   C     0.43110   0.21975   0.15350   0.00000  Uiso   1.00
C103   C     0.42235   0.18650   0.12900   0.00000  Uiso   1.00
C104   C     0.40730   0.19675   0.12625   0.00000  Uiso   1.00
C105   C     0.40000   0.22150   0.16000   0.00000  Uiso   1.00
C106   C     0.39800   0.17800   0.09200   0.00000  Uiso   1.00
N107   N     0.38597   0.22000   0.15025   0.00000  Uiso   1.00
N108   N     0.38480   0.19450   0.09950   0.00000  Uiso   1.00
H109   H     0.45235   0.00065   0.16700   0.00000  Uiso   1.00
H110   H     0.42757   0.00310   0.17325   0.00000  Uiso   1.00
H111   H     0.40560   0.24150   0.19100   0.00000  Uiso   1.00
H112   H     0.40185   0.15225   0.06825   0.00000  Uiso   1.00
C113   C     0.32020   0.09550   0.14950   0.00000  Uiso   1.00
C114   C     0.30610   0.09475   0.15350   0.00000  Uiso   1.00
C115   C     0.29735   0.06150   0.12900   0.00000  Uiso   1.00
C116   C     0.28230   0.07175   0.12625   0.00000  Uiso   1.00
C117   C     0.27500   0.09650   0.16000   0.00000  Uiso   1.00
C118   C     0.27300   0.05300   0.09200   0.00000  Uiso   1.00
N119   N     0.26098   0.09500   0.15025   0.00000  Uiso   1.00
N120   N     0.25980   0.06950   0.09950   0.00000  Uiso   1.00
H121   H     0.32735   0.12565   0.16700   0.00000  Uiso   1.00
H122   H     0.30258   0.12810   0.17325   0.00000  Uiso   1.00
H123   H     0.28060   0.11650   0.19100   0.00000  Uiso   1.00
H124   H     0.27685   0.02725   0.06825   0.00000  Uiso   1.00
C125   C     0.30480   0.22050   0.22550   0.00000  Uiso   1.00
C126   C     0.31890   0.21975   0.22150   0.00000  Uiso   1.00
C127   C     0.32765   0.18650   0.24600   0.00000  Uiso   1.00
C128   C     0.34270   0.19675   0.24875   0.00000  Uiso   1.00
C129   C     0.35000   0.22150   0.21500   0.00000  Uiso   1.00
C130   C     0.35200   0.17800   0.03300   0.00000  Uiso   1.00
N131   N     0.36402   0.22000   0.22475   0.00000  Uiso   1.00
N132   N     0.36520   0.19450   0.02550   0.00000  Uiso   1.00
H133   H     0.29765   0.00065   0.20800   0.00000  Uiso   1.00
H134   H     0.32243   0.00310   0.20175   0.00000  Uiso   1.00
H135   H     0.34440   0.24150   0.18400   0.00000  Uiso   1.00
H136   H     0.34815   0.15225   0.05675   0.00000  Uiso   1.00
C137   C     0.42980   0.09550   0.22550   0.00000  Uiso   1.00
C138   C     0.44390   0.09475   0.22150   0.00000  Uiso   1.00
C139   C     0.45265   0.06150   0.24600   0.00000  Uiso   1.00
C140   C     0.46770   0.07175   0.24875   0.00000  Uiso   1.00
C141   C     0.47500   0.09650   0.21500   0.00000  Uiso   1.00
C142   C     0.47700   0.05300   0.03300   0.00000  Uiso   1.00
N143   N     0.48902   0.09500   0.22475   0.00000  Uiso   1.00
N144   N     0.49020   0.06950   0.02550   0.00000  Uiso   1.00
H145   H     0.42265   0.12565   0.20800   0.00000  Uiso   1.00
H146   H     0.44742   0.12810   0.20175   0.00000  Uiso   1.00
H147   H     0.46940   0.11650   0.18400   0.00000  Uiso   1.00
H148   H     0.47315   0.02725   0.05675   0.00000  Uiso   1.00
C149   C     0.30480   0.02950   0.10050   0.00000  Uiso   1.00
C150   C     0.31890   0.03025   0.09650   0.00000  Uiso   1.00
C151   C     0.32765   0.06350   0.12100   0.00000  Uiso   1.00
C152   C     0.34270   0.05325   0.12375   0.00000  Uiso   1.00
C153   C     0.35000   0.02850   0.09000   0.00000  Uiso   1.00
C154   C     0.35200   0.07200   0.15800   0.00000  Uiso   1.00
N155   N     0.36402   0.03000   0.09975   0.00000  Uiso   1.00
N156   N     0.36520   0.05550   0.15050   0.00000  Uiso   1.00
H157   H     0.29765   0.24935   0.08300   0.00000  Uiso   1.00
H158   H     0.32243   0.24690   0.07675   0.00000  Uiso   1.00
H159   H     0.34440   0.00850   0.05900   0.00000  Uiso   1.00
H160   H     0.34815   0.09775   0.18175   0.00000  Uiso   1.00
C161   C     0.42980   0.15450   0.10050   0.00000  Uiso   1.00
C162   C     0.44390   0.15525   0.09650   0.00000  Uiso   1.00
C163   C     0.45265   0.18850   0.12100   0.00000  Uiso   1.00
C164   C     0.46770   0.17825   0.12375   0.00000  Uiso   1.00
C165   C     0.47500   0.15350   0.09000   0.00000  Uiso   1.00
C166   C     0.47700   0.19700   0.15800   0.00000  Uiso   1.00
N167   N     0.48902   0.15500   0.09975   0.00000  Uiso   1.00
N168   N     0.49020   0.18050   0.15050   0.00000  Uiso   1.00
H169   H     0.42265   0.12435   0.08300   0.00000  Uiso   1.00
H170   H     0.44742   0.12190   0.07675   0.00000  Uiso   1.00
H171   H     0.46940   0.13350   0.05900   0.00000  Uiso   1.00
H172   H     0.47315   0.22275   0.18175   0.00000  Uiso   1.00
C173   C     0.44520   0.02950   0.02450   0.00000  Uiso   1.00
C174   C     0.43110   0.03025   0.02850   0.00000  Uiso   1.00
C175   C     0.42235   0.06350   0.00400   0.00000  Uiso   1.00
C176   C     0.40730   0.05325   0.00125   0.00000  Uiso   1.00
C177   C     0.40000   0.02850   0.03500   0.00000  Uiso   1.00
C178   C     0.39800   0.07200   0.21700   0.00000  Uiso   1.00
N179   N     0.38597   0.03000   0.02525   0.00000  Uiso   1.00
N180   N     0.38480   0.05550   0.22450   0.00000  Uiso   1.00
H181   H     0.45235   0.24935   0.04200   0.00000  Uiso   1.00
H182   H     0.42757   0.24690   0.04825   0.00000  Uiso   1.00
H183   H     0.40560   0.00850   0.06600   0.00000  Uiso   1.00
H184   H     0.40185   0.09775   0.19325   0.00000  Uiso   1.00
C185   C     0.32020   0.15450   0.02450   0.00000  Uiso   1.00
C186   C     0.30610   0.15525   0.02850   0.00000  Uiso   1.00
C187   C     0.29735   0.18850   0.00400   0.00000  Uiso   1.00
C188   C     0.28230   0.17825   0.00125   0.00000  Uiso   1.00
C189   C     0.27500   0.15350   0.03500   0.00000  Uiso   1.00
C190   C     0.27300   0.19700   0.21700   0.00000  Uiso   1.00
N191   N     0.26098   0.15500   0.02525   0.00000  Uiso   1.00
N192   N     0.25980   0.18050   0.22450   0.00000  Uiso   1.00
H193   H     0.32735   0.12435   0.04200   0.00000  Uiso   1.00
H194   H     0.30258   0.12190   0.04825   0.00000  Uiso   1.00
H195   H     0.28060   0.13350   0.06600   0.00000  Uiso   1.00
H196   H     0.27685   0.22275   0.19325   0.00000  Uiso   1.00
Co197  Co    0.37500   0.00860   0.18750   0.00000  Uiso   1.00
Co198  Co    0.25000   0.13360   0.18750   0.00000  Uiso   1.00
Co199  Co    0.37500   0.24140   0.06250   0.00000  Uiso   1.00
Co200  Co    0.25000   0.11640   0.06250   0.00000  Uiso   1.00
C201   C     0.69520   0.22050   0.14950   0.00000  Uiso   1.00
C202   C     0.68110   0.21975   0.15350   0.00000  Uiso   1.00
C203   C     0.67235   0.18650   0.12900   0.00000  Uiso   1.00
C204   C     0.65730   0.19675   0.12625   0.00000  Uiso   1.00
C205   C     0.65000   0.22150   0.16000   0.00000  Uiso   1.00
C206   C     0.64800   0.17800   0.09200   0.00000  Uiso   1.00
N207   N     0.63597   0.22000   0.15025   0.00000  Uiso   1.00
N208   N     0.63480   0.19450   0.09950   0.00000  Uiso   1.00
H209   H     0.70235   0.00065   0.16700   0.00000  Uiso   1.00
H210   H     0.67757   0.00310   0.17325   0.00000  Uiso   1.00
H211   H     0.65560   0.24150   0.19100   0.00000  Uiso   1.00
H212   H     0.65185   0.15225   0.06825   0.00000  Uiso   1.00
C213   C     0.57020   0.09550   0.14950   0.00000  Uiso   1.00
C214   C     0.55610   0.09475   0.15350   0.00000  Uiso   1.00
C215   C     0.54735   0.06150   0.12900   0.00000  Uiso   1.00
C216   C     0.53230   0.07175   0.12625   0.00000  Uiso   1.00
C217   C     0.52500   0.09650   0.16000   0.00000  Uiso   1.00
C218   C     0.52300   0.05300   0.09200   0.00000  Uiso   1.00
N219   N     0.51098   0.09500   0.15025   0.00000  Uiso   1.00
N220   N     0.50980   0.06950   0.09950   0.00000  Uiso   1.00
H221   H     0.57735   0.12565   0.16700   0.00000  Uiso   1.00
H222   H     0.55258   0.12810   0.17325   0.00000  Uiso   1.00
H223   H     0.53060   0.11650   0.19100   0.00000  Uiso   1.00
H224   H     0.52685   0.02725   0.06825   0.00000  Uiso   1.00
C225   C     0.55480   0.22050   0.22550   0.00000  Uiso   1.00
C226   C     0.56890   0.21975   0.22150   0.00000  Uiso   1.00
C227   C     0.57765   0.18650   0.24600   0.00000  Uiso   1.00
C228   C     0.59270   0.19675   0.24875   0.00000  Uiso   1.00
C229   C     0.60000   0.22150   0.21500   0.00000  Uiso   1.00
C230   C     0.60200   0.17800   0.03300   0.00000  Uiso   1.00
N231   N     0.61402   0.22000   0.22475   0.00000  Uiso   1.00
N232   N     0.61520   0.19450   0.02550   0.00000  Uiso   1.00
H233   H     0.54765   0.00065   0.20800   0.00000  Uiso   1.00
H234   H     0.57243   0.00310   0.20175   0.00000  Uiso   1.00
H235   H     0.59440   0.24150   0.18400   0.00000  Uiso   1.00
H236   H     0.59815   0.15225   0.05675   0.00000  Uiso   1.00
C237   C     0.67980   0.09550   0.22550   0.00000  Uiso   1.00
C238   C     0.69390   0.09475   0.22150   0.00000  Uiso   1.00
C239   C     0.70265   0.06150   0.24600   0.00000  Uiso   1.00
C240   C     0.71770   0.07175   0.24875   0.00000  Uiso   1.00
C241   C     0.72500   0.09650   0.21500   0.00000  Uiso   1.00
C242   C     0.72700   0.05300   0.03300   0.00000  Uiso   1.00
N243   N     0.73902   0.09500   0.22475   0.00000  Uiso   1.00
N244   N     0.74020   0.06950   0.02550   0.00000  Uiso   1.00
H245   H     0.67265   0.12565   0.20800   0.00000  Uiso   1.00
H246   H     0.69742   0.12810   0.20175   0.00000  Uiso   1.00
H247   H     0.71940   0.11650   0.18400   0.00000  Uiso   1.00
H248   H     0.72315   0.02725   0.05675   0.00000  Uiso   1.00
C249   C     0.55480   0.02950   0.10050   0.00000  Uiso   1.00
C250   C     0.56890   0.03025   0.09650   0.00000  Uiso   1.00
C251   C     0.57765   0.06350   0.12100   0.00000  Uiso   1.00
C252   C     0.59270   0.05325   0.12375   0.00000  Uiso   1.00
C253   C     0.60000   0.02850   0.09000   0.00000  Uiso   1.00
C254   C     0.60200   0.07200   0.15800   0.00000  Uiso   1.00
N255   N     0.61402   0.03000   0.09975   0.00000  Uiso   1.00
N256   N     0.61520   0.05550   0.15050   0.00000  Uiso   1.00
H257   H     0.54765   0.24935   0.08300   0.00000  Uiso   1.00
H258   H     0.57243   0.24690   0.07675   0.00000  Uiso   1.00
H259   H     0.59440   0.00850   0.05900   0.00000  Uiso   1.00
H260   H     0.59815   0.09775   0.18175   0.00000  Uiso   1.00
C261   C     0.67980   0.15450   0.10050   0.00000  Uiso   1.00
C262   C     0.69390   0.15525   0.09650   0.00000  Uiso   1.00
C263   C     0.70265   0.18850   0.12100   0.00000  Uiso   1.00
C264   C     0.71770   0.17825   0.12375   0.00000  Uiso   1.00
C265   C     0.72500   0.15350   0.09000   0.00000  Uiso   1.00
C266   C     0.72700   0.19700   0.15800   0.00000  Uiso   1.00
N267   N     0.73902   0.15500   0.09975   0.00000  Uiso   1.00
N268   N     0.74020   0.18050   0.15050   0.00000  Uiso   1.00
H269   H     0.67265   0.12435   0.08300   0.00000  Uiso   1.00
H270   H     0.69742   0.12190   0.07675   0.00000  Uiso   1.00
H271   H     0.71940   0.13350   0.05900   0.00000  Uiso   1.00
H272   H     0.72315   0.22275   0.18175   0.00000  Uiso   1.00
C273   C     0.69520   0.02950   0.02450   0.00000  Uiso   1.00
C274   C     0.68110   0.03025   0.02850   0.00000  Uiso   1.00
C275   C     0.67235   0.06350   0.00400   0.00000  Uiso   1.00
C276   C     0.65730   0.05325   0.00125   0.00000  Uiso   1.00
C277   C     0.65000   0.02850   0.03500   0.00000  Uiso   1.00
C278   C     0.64800   0.07200   0.21700   0.00000  Uiso   1.00
N279   N     0.63597   0.03000   0.02525   0.00000  Uiso   1.00
N280   N     0.63480   0.05550   0.22450   0.00000  Uiso   1.00
H281   H     0.70235   0.24935   0.04200   0.00000  Uiso   1.00
H282   H     0.67757   0.24690   0.04825   0.00000  Uiso   1.00
H283   H     0.65560   0.00850   0.06600   0.00000  Uiso   1.00
H284   H     0.65185   0.09775   0.19325   0.00000  Uiso   1.00
C285   C     0.57020   0.15450   0.02450   0.00000  Uiso   1.00
C286   C     0.55610   0.15525   0.02850   0.00000  Uiso   1.00
C287   C     0.54735   0.18850   0.00400   0.00000  Uiso   1.00
C288   C     0.53230   0.17825   0.00125   0.00000  Uiso   1.00
C289   C     0.52500   0.15350   0.03500   0.00000  Uiso   1.00
C290   C     0.52300   0.19700   0.21700   0.00000  Uiso   1.00
N291   N     0.51098   0.15500   0.02525   0.00000  Uiso   1.00
N292   N     0.50980   0.18050   0.22450   0.00000  Uiso   1.00
H293   H     0.57735   0.12435   0.04200   0.00000  Uiso   1.00
H294   H     0.55258   0.12190   0.04825   0.00000  Uiso   1.00
H295   H     0.53060   0.13350   0.06600   0.00000  Uiso   1.00
H296   H     0.52685   0.22275   0.19325   0.00000  Uiso   1.00
Co297  Co    0.62500   0.00860   0.18750   0.00000  Uiso   1.00
Co298  Co    0.50000   0.13360   0.18750   0.00000  Uiso   1.00
Co299  Co    0.62500   0.24140   0.06250   0.00000  Uiso   1.00
Co300  Co    0.50000   0.11640   0.06250   0.00000  Uiso   1.00
C301   C     0.94520   0.22050   0.14950   0.00000  Uiso   1.00
C302   C     0.93110   0.21975   0.15350   0.00000  Uiso   1.00
C303   C     0.92235   0.18650   0.12900   0.00000  Uiso   1.00
C304   C     0.90730   0.19675   0.12625   0.00000  Uiso   1.00
C305   C     0.90000   0.22150   0.16000   0.00000  Uiso   1.00
C306   C     0.89800   0.17800   0.09200   0.00000  Uiso   1.00
N307   N     0.88597   0.22000   0.15025   0.00000  Uiso   1.00
N308   N     0.88480   0.19450   0.09950   0.00000  Uiso   1.00
H309   H     0.95235   0.00065   0.16700   0.00000  Uiso   1.00
H310   H     0.92757   0.00310   0.17325   0.00000  Uiso   1.00
H311   H     0.90560   0.24150   0.19100   0.00000  Uiso   1.00
H312   H     0.90185   0.15225   0.06825   0.00000  Uiso   1.00
C313   C     0.82020   0.09550   0.14950   0.00000  Uiso   1.00
C314   C     0.80610   0.09475   0.15350   0.00000  Uiso   1.00
C315   C     0.79735   0.06150   0.12900   0.00000  Uiso   1.00
C316   C     0.78230   0.07175   0.12625   0.00000  Uiso   1.00
C317   C     0.77500   0.09650   0.16000   0.00000  Uiso   1.00
C318   C     0.77300   0.05300   0.09200   0.00000  Uiso   1.00
N319   N     0.76097   0.09500   0.15025   0.00000  Uiso   1.00
N320   N     0.75980   0.06950   0.09950   0.00000  Uiso   1.00
H321   H     0.82735   0.12565   0.16700   0.00000  Uiso   1.00
H322   H     0.80257   0.12810   0.17325   0.00000  Uiso   1.00
H323   H     0.78060   0.11650   0.19100   0.00000  Uiso   1.00
H324   H     0.77685   0.02725   0.06825   0.00000  Uiso   1.00
C325   C     0.80480   0.22050   0.22550   0.00000  Uiso   1.00
C326   C     0.81890   0.21975   0.22150   0.00000  Uiso   1.00
C327   C     0.82765   0.18650   0.24600   0.00000  Uiso   1.00
C328   C     0.84270   0.19675   0.24875   0.00000  Uiso   1.00
C329   C     0.85000   0.22150   0.21500   0.00000  Uiso   1.00
C330   C     0.85200   0.17800   0.03300   0.00000  Uiso   1.00
N331   N     0.86402   0.22000   0.22475   0.00000  Uiso   1.00
N332   N     0.86520   0.19450   0.02550   0.00000  Uiso   1.00
H333   H     0.79765   0.00065   0.20800   0.00000  Uiso   1.00
H334   H     0.82242   0.00310   0.20175   0.00000  Uiso   1.00
H335   H     0.84440   0.24150   0.18400   0.00000  Uiso   1.00
H336   H     0.84815   0.15225   0.05675   0.00000  Uiso   1.00
C337   C     0.92980   0.09550   0.22550   0.00000  Uiso   1.00
C338   C     0.94390   0.09475   0.22150   0.00000  Uiso   1.00
C339   C     0.95265   0.06150   0.24600   0.00000  Uiso   1.00
C340   C     0.96770   0.07175   0.24875   0.00000  Uiso   1.00
C341   C     0.97500   0.09650   0.21500   0.00000  Uiso   1.00
C342   C     0.97700   0.05300   0.03300   0.00000  Uiso   1.00
N343   N     0.98902   0.09500   0.22475   0.00000  Uiso   1.00
N344   N     0.99020   0.06950   0.02550   0.00000  Uiso   1.00
H345   H     0.92265   0.12565   0.20800   0.00000  Uiso   1.00
H346   H     0.94742   0.12810   0.20175   0.00000  Uiso   1.00
H347   H     0.96940   0.11650   0.18400   0.00000  Uiso   1.00
H348   H     0.97315   0.02725   0.05675   0.00000  Uiso   1.00
C349   C     0.80480   0.02950   0.10050   0.00000  Uiso   1.00
C350   C     0.81890   0.03025   0.09650   0.00000  Uiso   1.00
C351   C     0.82765   0.06350   0.12100   0.00000  Uiso   1.00
C352   C     0.84270   0.05325   0.12375   0.00000  Uiso   1.00
C353   C     0.85000   0.02850   0.09000   0.00000  Uiso   1.00
C354   C     0.85200   0.07200   0.15800   0.00000  Uiso   1.00
N355   N     0.86402   0.03000   0.09975   0.00000  Uiso   1.00
N356   N     0.86520   0.05550   0.15050   0.00000  Uiso   1.00
H357   H     0.79765   0.24935   0.08300   0.00000  Uiso   1.00
H358   H     0.82242   0.24690   0.07675   0.00000  Uiso   1.00
H359   H     0.84440   0.00850   0.05900   0.00000  Uiso   1.00
H360   H     0.84815   0.09775   0.18175   0.00000  Uiso   1.00
C361   C     0.92980   0.15450   0.10050   0.00000  Uiso   1.00
C362   C     0.94390   0.15525   0.09650   0.00000  Uiso   1.00
C363   C     0.95265   0.18850   0.12100   0.00000  Uiso   1.00
C364   C     0.96770   0.17825   0.12375   0.00000  Uiso   1.00
C365   C     0.97500   0.15350   0.09000   0.00000  Uiso   1.00
C366   C     0.97700   0.19700   0.15800   0.00000  Uiso   1.00
N367   N     0.98902   0.15500   0.09975   0.00000  Uiso   1.00
N368   N     0.99020   0.18050   0.15050   0.00000  Uiso   1.00
H369   H     0.92265   0.12435   0.08300   0.00000  Uiso   1.00
H370   H     0.94742   0.12190   0.07675   0.00000  Uiso   1.00
H371   H     0.96940   0.13350   0.05900   0.00000  Uiso   1.00
H372   H     0.97315   0.22275   0.18175   0.00000  Uiso   1.00
C373   C     0.94520   0.02950   0.02450   0.00000  Uiso   1.00
C374   C     0.93110   0.03025   0.02850   0.00000  Uiso   1.00
C375   C     0.92235   0.06350   0.00400   0.00000  Uiso   1.00
C376   C     0.90730   0.05325   0.00125   0.00000  Uiso   1.00
C377   C     0.90000   0.02850   0.03500   0.00000  Uiso   1.00
C378   C     0.89800   0.07200   0.21700   0.00000  Uiso   1.00
N379   N     0.88597   0.03000   0.02525   0.00000  Uiso   1.00
N380   N     0.88480   0.05550   0.22450   0.00000  Uiso   1.00
H381   H     0.95235   0.24935   0.04200   0.00000  Uiso   1.00
H382   H     0.92757   0.24690   0.04825   0.00000  Uiso   1.00
H383   H     0.90560   0.00850   0.06600   0.00000  Uiso   1.00
H384   H     0.90185   0.09775   0.19325   0.00000  Uiso   1.00
C385   C     0.82020   0.15450   0.02450   0.00000  Uiso   1.00
C386   C     0.80610   0.15525   0.02850   0.00000  Uiso   1.00
C387   C     0.79735   0.18850   0.00400   0.00000  Uiso   1.00
C388   C     0.78230   0.17825   0.00125   0.00000  Uiso   1.00
C389   C     0.77500   0.15350   0.03500   0.00000  Uiso   1.00
C390   C     0.77300   0.19700   0.21700   0.00000  Uiso   1.00
N391   N     0.76097   0.15500   0.02525   0.00000  Uiso   1.00
N392   N     0.75980   0.18050   0.22450   0.00000  Uiso   1.00
H393   H     0.82735   0.12435   0.04200   0.00000  Uiso   1.00
H394   H     0.80257   0.12190   0.04825   0.00000  Uiso   1.00
H395   H     0.78060   0.13350   0.06600   0.00000  Uiso   1.00
H396   H     0.77685   0.22275   0.19325   0.00000  Uiso   1.00
Co397  Co    0.87500   0.00860   0.18750   0.00000  Uiso   1.00
Co398  Co    0.75000   0.13360   0.18750   0.00000  Uiso   1.00
Co399  Co    0.87500   0.24140   0.06250   0.00000  Uiso   1.00
Co400  Co    0.75000   0.11640   0.06250   0.00000  Uiso   1.00
C401   C     0.19520   0.47050   0.14950   0.00000  Uiso   1.00
C402   C     0.18110   0.46975   0.15350   0.00000  Uiso   1.00
C403   C     0.17235   0.43650   0.12900   0.00000  Uiso   1.00
C404   C     0.15730   0.44675   0.12625   0.00000  Uiso   1.00
C405   C     0.15000   0.47150   0.16000   0.00000  Uiso   1.00
C406   C     0.14800   0.42800   0.09200   0.00000  Uiso   1.00
N407   N     0.13598   0.47000   0.15025   0.00000  Uiso   1.00
N408   N     0.13480   0.44450   0.09950   0.00000  Uiso   1.00
H409   H     0.20235   0.25065   0.16700   0.00000  Uiso   1.00
H410   H     0.17758   0.25310   0.17325   0.00000  Uiso   1.00
H411   H     0.15560   0.49150   0.19100   0.00000  Uiso   1.00
H412   H     0.15185   0.40225   0.06825   0.00000  Uiso   1.00
C413   C     0.07020   0.34550   0.14950   0.00000  Uiso   1.00
C414   C     0.05610   0.34475   0.15350   0.00000  Uiso   1.00
C415   C     0.04735   0.31150   0.12900   0.00000  Uiso   1.00
C416   C     0.03230   0.32175   0.12625   0.00000  Uiso   1.00
C417   C     0.02500   0.34650   0.16000   0.00000  Uiso   1.00
C418   C     0.02300   0.30300   0.09200   0.00000  Uiso   1.00
N419   N     0.01098   0.34500   0.15025   0.00000  Uiso   1.00
N420   N     0.00980   0.31950   0.09950   0.00000  Uiso   1.00
H421   H     0.07735   0.37565   0.16700   0.00000  Uiso   1.00
H422   H     0.05258   0.37810   0.17325   0.00000  Uiso   1.00
H423   H     0.03060   0.36650   0.19100   0.00000  Uiso   1.00
H424   H     0.02685   0.27725   0.06825   0.00000  Uiso   1.00
C425   C     0.05480   0.47050   0.22550   0.00000  Uiso   1.00
C426   C     0.06890   0.46975   0.22150   0.00000  Uiso   1.00
C427   C     0.07765   0.43650   0.24600   0.00000  Uiso   1.00
C428   C     0.09270   0.44675   0.24875   0.00000  Uiso   1.00
C429   C     0.10000   0.47150   0.21500   0.00000  Uiso   1.00
C430   C     0.10200   0.42800   0.03300   0.00000  Uiso   1.00
N431   N     0.11403   0.47000   0.22475   0.00000  Uiso   1.00
N432   N     0.11520   0.44450   0.02550   0.00000  Uiso   1.00
H433   H     0.04765   0.25065   0.20800   0.00000  Uiso   1.00
H434   H     0.07243   0.25310   0.20175   0.00000  Uiso   1.00
H435   H     0.09440   0.49150   0.18400   0.00000  Uiso   1.00
H436   H     0.09815   0.40225   0.05675   0.00000  Uiso   1.00
C437   C     0.17980   0.34550   0.22550   0.00000  Uiso   1.00
C438   C     0.19390   0.34475   0.22150   0.00000  Uiso   1.00
C439   C     0.20265   0.31150   0.24600   0.00000  Uiso   1.00
C440   C     0.21770   0.32175   0.24875   0.00000  Uiso   1.00
C441   C     0.22500   0.34650   0.21500   0.00000  Uiso   1.00
C442   C     0.22700   0.30300   0.03300   0.00000  Uiso   1.00
N443   N     0.23902   0.34500   0.22475   0.00000  Uiso   1.00
N444   N     0.24020   0.31950   0.02550   0.00000  Uiso   1.00
H445   H     0.17265   0.37565   0.20800   0.00000  Uiso   1.00
H446   H     0.19742   0.37810   0.20175   0.00000  Uiso   1.00
H447   H     0.21940   0.36650   0.18400   0.00000  Uiso   1.00
H448   H     0.22315   0.27725   0.05675   0.00000  Uiso   1.00
C449   C     0.05480   0.27950   0.10050   0.00000  Uiso   1.00
C450   C     0.06890   0.28025   0.09650   0.00000  Uiso   1.00
C451   C     0.07765   0.31350   0.12100   0.00000  Uiso   1.00
C452   C     0.09270   0.30325   0.12375   0.00000  Uiso   1.00
C453   C     0.10000   0.27850   0.09000   0.00000  Uiso   1.00
C454   C     0.10200   0.32200   0.15800   0.00000  Uiso   1.00
N455   N     0.11403   0.28000   0.09975   0.00000  Uiso   1.00
N456   N     0.11520   0.30550   0.15050   0.00000  Uiso   1.00
H457   H     0.04765   0.49935   0.08300   0.00000  Uiso   1.00
H458   H     0.07243   0.49690   0.07675   0.00000  Uiso   1.00
H459   H     0.09440   0.25850   0.05900   0.00000  Uiso   1.00
H460   H     0.09815   0.34775   0.18175   0.00000  Uiso   1.00
C461   C     0.17980   0.40450   0.10050   0.00000  Uiso   1.00
C462   C     0.19390   0.40525   0.09650   0.00000  Uiso   1.00
C463   C     0.20265   0.43850   0.12100   0.00000  Uiso   1.00
C464   C     0.21770   0.42825   0.12375   0.00000  Uiso   1.00
C465   C     0.22500   0.40350   0.09000   0.00000  Uiso   1.00
C466   C     0.22700   0.44700   0.15800   0.00000  Uiso   1.00
N467   N     0.23902   0.40500   0.09975   0.00000  Uiso   1.00
N468   N     0.24020   0.43050   0.15050   0.00000  Uiso   1.00
H469   H     0.17265   0.37435   0.08300   0.00000  Uiso   1.00
H470   H     0.19742   0.37190   0.07675   0.00000  Uiso   1.00
H471   H     0.21940   0.38350   0.05900   0.00000  Uiso   1.00
H472   H     0.22315   0.47275   0.18175   0.00000  Uiso   1.00
C473   C     0.19520   0.27950   0.02450   0.00000  Uiso   1.00
C474   C     0.18110   0.28025   0.02850   0.00000  Uiso   1.00
C475   C     0.17235   0.31350   0.00400   0.00000  Uiso   1.00
C476   C     0.15730   0.30325   0.00125   0.00000  Uiso   1.00
C477   C     0.15000   0.27850   0.03500   0.00000  Uiso   1.00
C478   C     0.14800   0.32200   0.21700   0.00000  Uiso   1.00
N479   N     0.13598   0.28000   0.02525   0.00000  Uiso   1.00
N480   N     0.13480   0.30550   0.22450   0.00000  Uiso   1.00
H481   H     0.20235   0.49935   0.04200   0.00000  Uiso   1.00
H482   H     0.17758   0.49690   0.04825   0.00000  Uiso   1.00
H483   H     0.15560   0.25850   0.06600   0.00000  Uiso   1.00
H484   H     0.15185   0.34775   0.19325   0.00000  Uiso   1.00
C485   C     0.07020   0.40450   0.02450   0.00000  Uiso   1.00
C486   C     0.05610   0.40525   0.02850   0.00000  Uiso   1.00
C487   C     0.04735   0.43850   0.00400   0.00000  Uiso   1.00
C488   C     0.03230   0.42825   0.00125   0.00000  Uiso   1.00
C489   C     0.02500   0.40350   0.03500   0.00000  Uiso   1.00
C490   C     0.02300   0.44700   0.21700   0.00000  Uiso   1.00
N491   N     0.01098   0.40500   0.02525   0.00000  Uiso   1.00
N492   N     0.00980   0.43050   0.22450   0.00000  Uiso   1.00
H493   H     0.07735   0.37435   0.04200   0.00000  Uiso   1.00
H494   H     0.05258   0.37190   0.04825   0.00000  Uiso   1.00
H495   H     0.03060   0.38350   0.06600   0.00000  Uiso   1.00
H496   H     0.02685   0.47275   0.19325   0.00000  Uiso   1.00
Co497  Co    0.12500   0.25860   0.18750   0.00000  Uiso   1.00
Co498  Co    0.00000   0.38360   0.18750   0.00000  Uiso   1.00
Co499  Co    0.12500   0.49140   0.06250   0.00000  Uiso   1.00
Co500  Co    0.00000   0.36640   0.06250   0.00000  Uiso   1.00
C501   C     0.44520   0.47050   0.14950   0.00000  Uiso   1.00
C502   C     0.43110   0.46975   0.15350   0.00000  Uiso   1.00
C503   C     0.42235   0.43650   0.12900   0.00000  Uiso   1.00
C504   C     0.40730   0.44675   0.12625   0.00000  Uiso   1.00
C505   C     0.40000   0.47150   0.16000   0.00000  Uiso   1.00
C506   C     0.39800   0.42800   0.09200   0.00000  Uiso   1.00
N507   N     0.38597   0.47000   0.15025   0.00000  Uiso   1.00
N508   N     0.38480   0.44450   0.09950   0.00000  Uiso   1.00
H509   H     0.45235   0.25065   0.16700   0.00000  Uiso   1.00
H510   H     0.42757   0.25310   0.17325   0.00000  Uiso   1.00
H511   H     0.40560   0.49150   0.19100   0.00000  Uiso   1.00
H512   H     0.40185   0.40225   0.06825   0.00000  Uiso   1.00
C513   C     0.32020   0.34550   0.14950   0.00000  Uiso   1.00
C514   C     0.30610   0.34475   0.15350   0.00000  Uiso   1.00
C515   C     0.29735   0.31150   0.12900   0.00000  Uiso   1.00
C516   C     0.28230   0.32175   0.12625   0.00000  Uiso   1.00
C517   C     0.27500   0.34650   0.16000   0.00000  Uiso   1.00
C518   C     0.27300   0.30300   0.09200   0.00000  Uiso   1.00
N519   N     0.26098   0.34500   0.15025   0.00000  Uiso   1.00
N520   N     0.25980   0.31950   0.09950   0.00000  Uiso   1.00
H521   H     0.32735   0.37565   0.16700   0.00000  Uiso   1.00
H522   H     0.30258   0.37810   0.17325   0.00000  Uiso   1.00
H523   H     0.28060   0.36650   0.19100   0.00000  Uiso   1.00
H524   H     0.27685   0.27725   0.06825   0.00000  Uiso   1.00
C525   C     0.30480   0.47050   0.22550   0.00000  Uiso   1.00
C526   C     0.31890   0.46975   0.22150   0.00000  Uiso   1.00
C527   C     0.32765   0.43650   0.24600   0.00000  Uiso   1.00
C528   C     0.34270   0.44675   0.24875   0.00000  Uiso   1.00
C529   C     0.35000   0.47150   0.21500   0.00000  Uiso   1.00
C530   C     0.35200   0.42800   0.03300   0.00000  Uiso   1.00
N531   N     0.36402   0.47000   0.22475   0.00000  Uiso   1.00
N532   N     0.36520   0.44450   0.02550   0.00000  Uiso   1.00
H533   H     0.29765   0.25065   0.20800   0.00000  Uiso   1.00
H534   H     0.32243   0.25310   0.20175   0.00000  Uiso   1.00
H535   H     0.34440   0.49150   0.18400   0.00000  Uiso   1.00
H536   H     0.34815   0.40225   0.05675   0.00000  Uiso   1.00
C537   C     0.42980   0.34550   0.22550   0.00000  Uiso   1.00
C538   C     0.44390   0.34475   0.22150   0.00000  Uiso   1.00
C539   C     0.45265   0.31150   0.24600   0.00000  Uiso   1.00
C540   C     0.46770   0.32175   0.24875   0.00000  Uiso   1.00
C541   C     0.47500   0.34650   0.21500   0.00000  Uiso   1.00
C542   C     0.47700   0.30300   0.03300   0.00000  Uiso   1.00
N543   N     0.48902   0.34500   0.22475   0.00000  Uiso   1.00
N544   N     0.49020   0.31950   0.02550   0.00000  Uiso   1.00
H545   H     0.42265   0.37565   0.20800   0.00000  Uiso   1.00
H546   H     0.44742   0.37810   0.20175   0.00000  Uiso   1.00
H547   H     0.46940   0.36650   0.18400   0.00000  Uiso   1.00
H548   H     0.47315   0.27725   0.05675   0.00000  Uiso   1.00
C549   C     0.30480   0.27950   0.10050   0.00000  Uiso   1.00
C550   C     0.31890   0.28025   0.09650   0.00000  Uiso   1.00
C551   C     0.32765   0.31350   0.12100   0.00000  Uiso   1.00
C552   C     0.34270   0.30325   0.12375   0.00000  Uiso   1.00
C553   C     0.35000   0.27850   0.09000   0.00000  Uiso   1.00
C554   C     0.35200   0.32200   0.15800   0.00000  Uiso   1.00
N555   N     0.36402   0.28000   0.09975   0.00000  Uiso   1.00
N556   N     0.36520   0.30550   0.15050   0.00000  Uiso   1.00
H557   H     0.29765   0.49935   0.08300   0.00000  Uiso   1.00
H558   H     0.32243   0.49690   0.07675   0.00000  Uiso   1.00
H559   H     0.34440   0.25850   0.05900   0.00000  Uiso   1.00
H560   H     0.34815   0.34775   0.18175   0.00000  Uiso   1.00
C561   C     0.42980   0.40450   0.10050   0.00000  Uiso   1.00
C562   C     0.44390   0.40525   0.09650   0.00000  Uiso   1.00
C563   C     0.45265   0.43850   0.12100   0.00000  Uiso   1.00
C564   C     0.46770   0.42825   0.12375   0.00000  Uiso   1.00
C565   C     0.47500   0.40350   0.09000   0.00000  Uiso   1.00
C566   C     0.47700   0.44700   0.15800   0.00000  Uiso   1.00
N567   N     0.48902   0.40500   0.09975   0.00000  Uiso   1.00
N568   N     0.49020   0.43050   0.15050   0.00000  Uiso   1.00
H569   H     0.42265   0.37435   0.08300   0.00000  Uiso   1.00
H570   H     0.44742   0.37190   0.07675   0.00000  Uiso   1.00
H571   H     0.46940   0.38350   0.05900   0.00000  Uiso   1.00
H572   H     0.47315   0.47275   0.18175   0.00000  Uiso   1.00
C573   C     0.44520   0.27950   0.02450   0.00000  Uiso   1.00
C574   C     0.43110   0.28025   0.02850   0.00000  Uiso   1.00
C575   C     0.42235   0.31350   0.00400   0.00000  Uiso   1.00
C576   C     0.40730   0.30325   0.00125   0.00000  Uiso   1.00
C577   C     0.40000   0.27850   0.03500   0.00000  Uiso   1.00
C578   C     0.39800   0.32200   0.21700   0.00000  Uiso   1.00
N579   N     0.38597   0.28000   0.02525   0.00000  Uiso   1.00
N580   N     0.38480   0.30550   0.22450   0.00000  Uiso   1.00
H581   H     0.45235   0.49935   0.04200   0.00000  Uiso   1.00
H582   H     0.42757   0.49690   0.04825   0.00000  Uiso   1.00
H583   H     0.40560   0.25850   0.06600   0.00000  Uiso   1.00
H584   H     0.40185   0.34775   0.19325   0.00000  Uiso   1.00
C585   C     0.32020   0.40450   0.02450   0.00000  Uiso   1.00
C586   C     0.30610   0.40525   0.02850   0.00000  Uiso   1.00
C587   C     0.29735   0.43850   0.00400   0.00000  Uiso   1.00
C588   C     0.28230   0.42825   0.00125   0.00000  Uiso   1.00
C589   C     0.27500   0.40350   0.03500   0.00000  Uiso   1.00
C590   C     0.27300   0.44700   0.21700   0.00000  Uiso   1.00
N591   N     0.26098   0.40500   0.02525   0.00000  Uiso   1.00
N592   N     0.25980   0.43050   0.22450   0.00000  Uiso   1.00
H593   H     0.32735   0.37435   0.04200   0.00000  Uiso   1.00
H594   H     0.30258   0.37190   0.04825   0.00000  Uiso   1.00
H595   H     0.28060   0.38350   0.06600   0.00000  Uiso   1.00
H596   H     0.27685   0.47275   0.19325   0.00000  Uiso   1.00
Co597  Co    0.37500   0.25860   0.18750   0.00000  Uiso   1.00
Co598  Co    0.25000   0.38360   0.18750   0.00000  Uiso   1.00
Co599  Co    0.37500   0.49140   0.06250   0.00000  Uiso   1.00
Co600  Co    0.25000   0.36640   0.06250   0.00000  Uiso   1.00
C601   C     0.69520   0.47050   0.14950   0.00000  Uiso   1.00
C602   C     0.68110   0.46975   0.15350   0.00000  Uiso   1.00
C603   C     0.67235   0.43650   0.12900   0.00000  Uiso   1.00
C604   C     0.65730   0.44675   0.12625   0.00000  Uiso   1.00
C605   C     0.65000   0.47150   0.16000   0.00000  Uiso   1.00
C606   C     0.64800   0.42800   0.09200   0.00000  Uiso   1.00
N607   N     0.63597   0.47000   0.15025   0.00000  Uiso   1.00
N608   N     0.63480   0.44450   0.09950   0.00000  Uiso   1.00
H609   H     0.70235   0.25065   0.16700   0.00000  Uiso   1.00
H610   H     0.67757   0.25310   0.17325   0.00000  Uiso   1.00
H611   H     0.65560   0.49150   0.19100   0.00000  Uiso   1.00
H612   H     0.65185   0.40225   0.06825   0.00000  Uiso   1.00
C613   C     0.57020   0.34550   0.14950   0.00000  Uiso   1.00
C614   C     0.55610   0.34475   0.15350   0.00000  Uiso   1.00
C615   C     0.54735   0.31150   0.12900   0.00000  Uiso   1.00
C616   C     0.53230   0.32175   0.12625   0.00000  Uiso   1.00
C617   C     0.52500   0.34650   0.16000   0.00000  Uiso   1.00
C618   C     0.52300   0.30300   0.09200   0.00000  Uiso   1.00
N619   N     0.51098   0.34500   0.15025   0.00000  Uiso   1.00
N620   N     0.50980   0.31950   0.09950   0.00000  Uiso   1.00
H621   H     0.57735   0.37565   0.16700   0.00000  Uiso   1.00
H622   H     0.55258   0.37810   0.17325   0.00000  Uiso   1.00
H623   H     0.53060   0.36650   0.19100   0.00000  Uiso   1.00
H624   H     0.52685   0.27725   0.06825   0.00000  Uiso   1.00
C625   C     0.55480   0.47050   0.22550   0.00000  Uiso   1.00
C626   C     0.56890   0.46975   0.22150   0.00000  Uiso   1.00
C627   C     0.57765   0.43650   0.24600   0.00000  Uiso   1.00
C628   C     0.59270   0.44675   0.24875   0.00000  Uiso   1.00
C629   C     0.60000   0.47150   0.21500   0.00000  Uiso   1.00
C630   C     0.60200   0.42800   0.03300   0.00000  Uiso   1.00
N631   N     0.61402   0.47000   0.22475   0.00000  Uiso   1.00
N632   N     0.61520   0.44450   0.02550   0.00000  Uiso   1.00
H633   H     0.54765   0.25065   0.20800   0.00000  Uiso   1.00
H634   H     0.57243   0.25310   0.20175   0.00000  Uiso   1.00
H635   H     0.59440   0.49150   0.18400   0.00000  Uiso   1.00
H636   H     0.59815   0.40225   0.05675   0.00000  Uiso   1.00
C637   C     0.67980   0.34550   0.22550   0.00000  Uiso   1.00
C638   C     0.69390   0.34475   0.22150   0.00000  Uiso   1.00
C639   C     0.70265   0.31150   0.24600   0.00000  Uiso   1.00
C640   C     0.71770   0.32175   0.24875   0.00000  Uiso   1.00
C641   C     0.72500   0.34650   0.21500   0.00000  Uiso   1.00
C642   C     0.72700   0.30300   0.03300   0.00000  Uiso   1.00
N643   N     0.73902   0.34500   0.22475   0.00000  Uiso   1.00
N644   N     0.74020   0.31950   0.02550   0.00000  Uiso   1.00
H645   H     0.67265   0.37565   0.20800   0.00000  Uiso   1.00
H646   H     0.69742   0.37810   0.20175   0.00000  Uiso   1.00
H647   H     0.71940   0.36650   0.18400   0.00000  Uiso   1.00
H648   H     0.72315   0.27725   0.05675   0.00000  Uiso   1.00
C649   C     0.55480   0.27950   0.10050   0.00000  Uiso   1.00
C650   C     0.56890   0.28025   0.09650   0.00000  Uiso   1.00
C651   C     0.57765   0.31350   0.12100   0.00000  Uiso   1.00
C652   C     0.59270   0.30325   0.12375   0.00000  Uiso   1.00
C653   C     0.60000   0.27850   0.09000   0.00000  Uiso   1.00
C654   C     0.60200   0.32200   0.15800   0.00000  Uiso   1.00
N655   N     0.61402   0.28000   0.09975   0.00000  Uiso   1.00
N656   N     0.61520   0.30550   0.15050   0.00000  Uiso   1.00
H657   H     0.54765   0.49935   0.08300   0.00000  Uiso   1.00
H658   H     0.57243   0.49690   0.07675   0.00000  Uiso   1.00
H659   H     0.59440   0.25850   0.05900   0.00000  Uiso   1.00
H660   H     0.59815   0.34775   0.18175   0.00000  Uiso   1.00
C661   C     0.67980   0.40450   0.10050   0.00000  Uiso   1.00
C662   C     0.69390   0.40525   0.09650   0.00000  Uiso   1.00
C663   C     0.70265   0.43850   0.12100   0.00000  Uiso   1.00
C664   C     0.71770   0.42825   0.12375   0.00000  Uiso   1.00
C665   C     0.72500   0.40350   0.09000   0.00000  Uiso   1.00
C666   C     0.72700   0.44700   0.15800   0.00000  Uiso   1.00
N667   N     0.73902   0.40500   0.09975   0.00000  Uiso   1.00
N668   N     0.74020   0.43050   0.15050   0.00000  Uiso   1.00
H669   H     0.67265   0.37435   0.08300   0.00000  Uiso   1.00
H670   H     0.69742   0.37190   0.07675   0.00000  Uiso   1.00
H671   H     0.71940   0.38350   0.05900   0.00000  Uiso   1.00
H672   H     0.72315   0.47275   0.18175   0.00000  Uiso   1.00
C673   C     0.69520   0.27950   0.02450   0.00000  Uiso   1.00
C674   C     0.68110   0.28025   0.02850   0.00000  Uiso   1.00
C675   C     0.67235   0.31350   0.00400   0.00000  Uiso   1.00
C676   C     0.65730   0.30325   0.00125   0.00000  Uiso   1.00
C677   C     0.65000   0.27850   0.03500   0.00000  Uiso   1.00
C678   C     0.64800   0.32200   0.21700   0.00000  Uiso   1.00
N679   N     0.63597   0.28000   0.02525   0.00000  Uiso   1.00
N680   N     0.63480   0.30550   0.22450   0.00000  Uiso   1.00
H681   H     0.70235   0.49935   0.04200   0.00000  Uiso   1.00
H682   H     0.67757   0.49690   0.04825   0.00000  Uiso   1.00
H683   H     0.65560   0.25850   0.06600   0.00000  Uiso   1.00
H684   H     0.65185   0.34775   0.19325   0.00000  Uiso   1.00
C685   C     0.57020   0.40450   0.02450   0.00000  Uiso   1.00
C686   C     0.55610   0.40525   0.02850   0.00000  Uiso   1.00
C687   C     0.54735   0.43850   0.00400   0.00000  Uiso   1.00
C688   C     0.53230   0.42825   0.00125   0.00000  Uiso   1.00
C689   C     0.52500   0.40350   0.03500   0.00000  Uiso   1.00
C690   C     0.52300   0.44700   0.21700   0.00000  Uiso   1.00
N691   N     0.51098   0.40500   0.02525   0.00000  Uiso   1.00
N692   N     0.50980   0.43050   0.22450   0.00000  Uiso   1.00
H693   H     0.57735   0.37435   0.04200   0.00000  Uiso   1.00
H694   H     0.55258   0.37190   0.04825   0.00000  Uiso   1.00
H695   H     0.53060   0.38350   0.06600   0.00000  Uiso   1.00
H696   H     0.52685   0.47275   0.19325   0.00000  Uiso   1.00
Co697  Co    0.62500   0.25860   0.18750   0.00000  Uiso   1.00
Co698  Co    0.50000   0.38360   0.18750   0.00000  Uiso   1.00
Co699  Co    0.62500   0.49140   0.06250   0.00000  Uiso   1.00
Co700  Co    0.50000   0.36640   0.06250   0.00000  Uiso   1.00
C701   C     0.94520   0.47050   0.14950   0.00000  Uiso   1.00
C702   C     0.93110   0.46975   0.15350   0.00000  Uiso   1.00
C703   C     0.92235   0.43650   0.12900   0.00000  Uiso   1.00
C704   C     0.90730   0.44675   0.12625   0.00000  Uiso   1.00
C705   C     0.90000   0.47150   0.16000   0.00000  Uiso   1.00
C706   C     0.89800   0.42800   0.09200   0.00000  Uiso   1.00
N707   N     0.88597   0.47000   0.15025   0.00000  Uiso   1.00
N708   N     0.88480   0.44450   0.09950   0.00000  Uiso   1.00
H709   H     0.95235   0.25065   0.16700   0.00000  Uiso   1.00
H710   H     0.92757   0.25310   0.17325   0.00000  Uiso   1.00
H711   H     0.90560   0.49150   0.19100   0.00000  Uiso   1.00
H712   H     0.90185   0.40225   0.06825   0.00000  Uiso   1.00
C713   C     0.82020   0.34550   0.14950   0.00000  Uiso   1.00
C714   C     0.80610   0.34475   0.15350   0.00000  Uiso   1.00
C715   C     0.79735   0.31150   0.12900   0.00000  Uiso   1.00
C716   C     0.78230   0.32175   0.12625   0.00000  Uiso   1.00
C717   C     0.77500   0.34650   0.16000   0.00000  Uiso   1.00
C718   C     0.77300   0.30300   0.09200   0.00000  Uiso   1.00
N719   N     0.76097   0.34500   0.15025   0.00000  Uiso   1.00
N720   N     0.75980   0.31950   0.09950   0.00000  Uiso   1.00
H721   H     0.82735   0.37565   0.16700   0.00000  Uiso   1.00
H722   H     0.80257   0.37810   0.17325   0.00000  Uiso   1.00
H723   H     0.78060   0.36650   0.19100   0.00000  Uiso   1.00
H724   H     0.77685   0.27725   0.06825   0.00000  Uiso   1.00
C725   C     0.80480   0.47050   0.22550   0.00000  Uiso   1.00
C726   C     0.81890   0.46975   0.22150   0.00000  Uiso   1.00
C727   C     0.82765   0.43650   0.24600   0.00000  Uiso   1.00
C728   C     0.84270   0.44675   0.24875   0.00000  Uiso   1.00
C729   C     0.85000   0.47150   0.21500   0.00000  Uiso   1.00
C730   C     0.85200   0.42800   0.03300   0.00000  Uiso   1.00
N731   N     0.86402   0.47000   0.22475   0.00000  Uiso   1.00
N732   N     0.86520   0.44450   0.02550   0.00000  Uiso   1.00
H733   H     0.79765   0.25065   0.20800   0.00000  Uiso   1.00
H734   H     0.82242   0.25310   0.20175   0.00000  Uiso   1.00
H735   H     0.84440   0.49150   0.18400   0.00000  Uiso   1.00
H736   H     0.84815   0.40225   0.05675   0.00000  Uiso   1.00
C737   C     0.92980   0.34550   0.22550   0.00000  Uiso   1.00
C738   C     0.94390   0.34475   0.22150   0.00000  Uiso   1.00
C739   C     0.95265   0.31150   0.24600   0.00000  Uiso   1.00
C740   C     0.96770   0.32175   0.24875   0.00000  Uiso   1.00
C741   C     0.97500   0.34650   0.21500   0.00000  Uiso   1.00
C742   C     0.97700   0.30300   0.03300   0.00000  Uiso   1.00
N743   N     0.98902   0.34500   0.22475   0.00000  Uiso   1.00
N744   N     0.99020   0.31950   0.02550   0.00000  Uiso   1.00
H745   H     0.92265   0.37565   0.20800   0.00000  Uiso   1.00
H746   H     0.94742   0.37810   0.20175   0.00000  Uiso   1.00
H747   H     0.96940   0.36650   0.18400   0.00000  Uiso   1.00
H748   H     0.97315   0.27725   0.05675   0.00000  Uiso   1.00
C749   C     0.80480   0.27950   0.10050   0.00000  Uiso   1.00
C750   C     0.81890   0.28025   0.09650   0.00000  Uiso   1.00
C751   C     0.82765   0.31350   0.12100   0.00000  Uiso   1.00
C752   C     0.84270   0.30325   0.12375   0.00000  Uiso   1.00
C753   C     0.85000   0.27850   0.09000   0.00000  Uiso   1.00
C754   C     0.85200   0.32200   0.15800   0.00000  Uiso   1.00
N755   N     0.86402   0.28000   0.09975   0.00000  Uiso   1.00
N756   N     0.86520   0.30550   0.15050   0.00000  Uiso   1.00
H757   H     0.79765   0.49935   0.08300   0.00000  Uiso   1.00
H758   H     0.82242   0.49690   0.07675   0.00000  Uiso   1.00
H759   H     0.84440   0.25850   0.05900   0.00000  Uiso   1.00
H760   H     0.84815   0.34775   0.18175   0.00000  Uiso   1.00
C761   C     0.92980   0.40450   0.10050   0.00000  Uiso   1.00
C762   C     0.94390   0.40525   0.09650   0.00000  Uiso   1.00
C763   C     0.95265   0.43850   0.12100   0.00000  Uiso   1.00
C764   C     0.96770   0.42825   0.12375   0.00000  Uiso   1.00
C765   C     0.97500   0.40350   0.09000   0.00000  Uiso   1.00
C766   C     0.97700   0.44700   0.15800   0.00000  Uiso   1.00
N767   N     0.98902   0.40500   0.09975   0.00000  Uiso   1.00
N768   N     0.99020   0.43050   0.15050   0.00000  Uiso   1.00
H769   H     0.92265   0.37435   0.08300   0.00000  Uiso   1.00
H770   H     0.94742   0.37190   0.07675   0.00000  Uiso   1.00
H771   H     0.96940   0.38350   0.05900   0.00000  Uiso   1.00
H772   H     0.97315   0.47275   0.18175   0.00000  Uiso   1.00
C773   C     0.94520   0.27950   0.02450   0.00000  Uiso   1.00
C774   C     0.93110   0.28025   0.02850   0.00000  Uiso   1.00
C775   C     0.92235   0.31350   0.00400   0.00000  Uiso   1.00
C776   C     0.90730   0.30325   0.00125   0.00000  Uiso   1.00
C777   C     0.90000   0.27850   0.03500   0.00000  Uiso   1.00
C778   C     0.89800   0.32200   0.21700   0.00000  Uiso   1.00
N779   N     0.88597   0.28000   0.02525   0.00000  Uiso   1.00
N780   N     0.88480   0.30550   0.22450   0.00000  Uiso   1.00
H781   H     0.95235   0.49935   0.04200   0.00000  Uiso   1.00
H782   H     0.92757   0.49690   0.04825   0.00000  Uiso   1.00
H783   H     0.90560   0.25850   0.06600   0.00000  Uiso   1.00
H784   H     0.90185   0.34775   0.19325   0.00000  Uiso   1.00
C785   C     0.82020   0.40450   0.02450   0.00000  Uiso   1.00
C786   C     0.80610   0.40525   0.02850   0.00000  Uiso   1.00
C787   C     0.79735   0.43850   0.00400   0.00000  Uiso   1.00
C788   C     0.78230   0.42825   0.00125   0.00000  Uiso   1.00
C789   C     0.77500   0.40350   0.03500   0.00000  Uiso   1.00
C790   C     0.77300   0.44700   0.21700   0.00000  Uiso   1.00
N791   N     0.76097   0.40500   0.02525   0.00000  Uiso   1.00
N792   N     0.75980   0.43050   0.22450   0.00000  Uiso   1.00
H793   H     0.82735   0.37435   0.04200   0.00000  Uiso   1.00
H794   H     0.80257   0.37190   0.04825   0.00000  Uiso   1.00
H795   H     0.78060   0.38350   0.06600   0.00000  Uiso   1.00
H796   H     0.77685   0.47275   0.19325   0.00000  Uiso   1.00
Co797  Co    0.87500   0.25860   0.18750   0.00000  Uiso   1.00
Co798  Co    0.75000   0.38360   0.18750   0.00000  Uiso   1.00
Co799  Co    0.87500   0.49140   0.06250   0.00000  Uiso   1.00
Co800  Co    0.75000   0.36640   0.06250   0.00000  Uiso   1.00
C801   C     0.19520   0.72050   0.14950   0.00000  Uiso   1.00
C802   C     0.18110   0.71975   0.15350   0.00000  Uiso   1.00
C803   C     0.17235   0.68650   0.12900   0.00000  Uiso   1.00
C804   C     0.15730   0.69675   0.12625   0.00000  Uiso   1.00
C805   C     0.15000   0.72150   0.16000   0.00000  Uiso   1.00
C806   C     0.14800   0.67800   0.09200   0.00000  Uiso   1.00
N807   N     0.13598   0.72000   0.15025   0.00000  Uiso   1.00
N808   N     0.13480   0.69450   0.09950   0.00000  Uiso   1.00
H809   H     0.20235   0.50065   0.16700   0.00000  Uiso   1.00
H810   H     0.17758   0.50310   0.17325   0.00000  Uiso   1.00
H811   H     0.15560   0.74150   0.19100   0.00000  Uiso   1.00
H812   H     0.15185   0.65225   0.06825   0.00000  Uiso   1.00
C813   C     0.07020   0.59550   0.14950   0.00000  Uiso   1.00
C814   C     0.05610   0.59475   0.15350   0.00000  Uiso   1.00
C815   C     0.04735   0.56150   0.12900   0.00000  Uiso   1.00
C816   C     0.03230   0.57175   0.12625   0.00000  Uiso   1.00
C817   C     0.02500   0.59650   0.16000   0.00000  Uiso   1.00
C818   C     0.02300   0.55300   0.09200   0.00000  Uiso   1.00
N819   N     0.01098   0.59500   0.15025   0.00000  Uiso   1.00
N820   N     0.00980   0.56950   0.09950   0.00000  Uiso   1.00
H821   H     0.07735   0.62565   0.16700   0.00000  Uiso   1.00
H822   H     0.05258   0.62810   0.17325   0.00000  Uiso   1.00
H823   H     0.03060   0.61650   0.19100   0.00000  Uiso   1.00
H824   H     0.02685   0.52725   0.06825   0.00000  Uiso   1.00
C825   C     0.05480   0.72050   0.22550   0.00000  Uiso   1.00
C826   C     0.06890   0.71975   0.22150   0.00000  Uiso   1.00
C827   C     0.07765   0.68650   0.24600   0.00000  Uiso   1.00
C828   C     0.09270   0.69675   0.24875   0.00000  Uiso   1.00
C829   C     0.10000   0.72150   0.21500   0.00000  Uiso   1.00
C830   C     0.10200   0.67800   0.03300   0.00000  Uiso   1.00
N831   N     0.11403   0.72000   0.22475   0.00000  Uiso   1.00
N832   N     0.11520   0.69450   0.02550   0.00000  Uiso   1.00
H833   H     0.04765   0.50065   0.20800   0.00000  Uiso   1.00
H834   H     0.07243   0.50310   0.20175   0.00000  Uiso   1.00
H835   H     0.09440   0.74150   0.18400   0.00000  Uiso   1.00
H836   H     0.09815   0.65225   0.05675   0.00000  Uiso   1.00
C837   C     0.17980   0.59550   0.22550   0.00000  Uiso   1.00
C838   C     0.19390   0.59475   0.22150   0.00000  Uiso   1.00
C839   C     0.20265   0.56150   0.24600   0.00000  Uiso   1.00
C840   C     0.21770   0.57175   0.24875   0.00000  Uiso   1.00
C841   C     0.22500   0.59650   0.21500   0.00000  Uiso   1.00
C842   C     0.22700   0.55300   0.03300   0.00000  Uiso   1.00
N843   N     0.23902   0.59500   0.22475   0.00000  Uiso   1.00
N844   N     0.24020   0.56950   0.02550   0.00000  Uiso   1.00
H845   H     0.17265   0.62565   0.20800   0.00000  Uiso   1.00
H846   H     0.19742   0.62810   0.20175   0.00000  Uiso   1.00
H847   H     0.21940   0.61650   0.18400   0.00000  Uiso   1.00
H848   H     0.22315   0.52725   0.05675   0.00000  Uiso   1.00
C849   C     0.05480   0.52950   0.10050   0.00000  Uiso   1.00
C850   C     0.06890   0.53025   0.09650   0.00000  Uiso   1.00
C851   C     0.07765   0.56350   0.12100   0.00000  Uiso   1.00
C852   C     0.09270   0.55325   0.12375   0.00000  Uiso   1.00
C853   C     0.10000   0.52850   0.09000   0.00000  Uiso   1.00
C854   C     0.10200   0.57200   0.15800   0.00000  Uiso   1.00
N855   N     0.11403   0.53000   0.09975   0.00000  Uiso   1.00
N856   N     0.11520   0.55550   0.15050   0.00000  Uiso   1.00
H857   H     0.04765   0.74935   0.08300   0.00000  Uiso   1.00
H858   H     0.07243   0.74690   0.07675   0.00000  Uiso   1.00
H859   H     0.09440   0.50850   0.05900   0.00000  Uiso   1.00
H860   H     0.09815   0.59775   0.18175   0.00000  Uiso   1.00
C861   C     0.17980   0.65450   0.10050   0.00000  Uiso   1.00
C862   C     0.19390   0.65525   0.09650   0.00000  Uiso   1.00
C863   C     0.20265   0.68850   0.12100   0.00000  Uiso   1.00
C864   C     0.21770   0.67825   0.12375   0.00000  Uiso   1.00
C865   C     0.22500   0.65350   0.09000   0.00000  Uiso   1.00
C866   C     0.22700   0.69700   0.15800   0.00000  Uiso   1.00
N867   N     0.23902   0.65500   0.09975   0.00000  Uiso   1.00
N868   N     0.24020   0.68050   0.15050   0.00000  Uiso   1.00
H869   H     0.17265   0.62435   0.08300   0.00000  Uiso   1.00
H870   H     0.19742   0.62190   0.07675   0.00000  Uiso   1.00
H871   H     0.21940   0.63350   0.05900   0.00000  Uiso   1.00
H872   H     0.22315   0.72275   0.18175   0.00000  Uiso   1.00
C873   C     0.19520   0.52950   0.02450   0.00000  Uiso   1.00
C874   C     0.18110   0.53025   0.02850   0.00000  Uiso   1.00
C875   C     0.17235   0.56350   0.00400   0.00000  Uiso   1.00
C876   C     0.15730   0.55325   0.00125   0.00000  Uiso   1.00
C877   C     0.15000   0.52850   0.03500   0.00000  Uiso   1.00
C878   C     0.14800   0.57200   0.21700   0.00000  Uiso   1.00
N879   N     0.13598   0.53000   0.02525   0.00000  Uiso   1.00
N880   N     0.13480   0.55550   0.22450   0.00000  Uiso   1.00
H881   H     0.20235   0.74935   0.04200   0.00000  Uiso   1.00
H882   H     0.17758   0.74690   0.04825   0.00000  Uiso   1.00
H883   H     0.15560   0.50850   0.06600   0.00000  Uiso   1.00
H884   H     0.15185   0.59775   0.19325   0.00000  Uiso   1.00
C885   C     0.07020   0.65450   0.02450   0.00000  Uiso   1.00
C886   C     0.05610   0.65525   0.02850   0.00000  Uiso   1.00
C887   C     0.04735   0.68850   0.00400   0.00000  Uiso   1.00
C888   C     0.03230   0.67825   0.00125   0.00000  Uiso   1.00
C889   C     0.02500   0.65350   0.03500   0.00000  Uiso   1.00
C890   C     0.02300   0.69700   0.21700   0.00000  Uiso   1.00
N891   N     0.01098   0.65500   0.02525   0.00000  Uiso   1.00
N892   N     0.00980   0.68050   0.22450   0.00000  Uiso   1.00
H893   H     0.07735   0.62435   0.04200   0.00000  Uiso   1.00
H894   H     0.05258   0.62190   0.04825   0.00000  Uiso   1.00
H895   H     0.03060   0.63350   0.06600   0.00000  Uiso   1.00
H896   H     0.02685   0.72275   0.19325   0.00000  Uiso   1.00
Co897  Co    0.12500   0.50860   0.18750   0.00000  Uiso   1.00
Co898  Co    0.00000   0.63360   0.18750   0.00000  Uiso   1.00
Co899  Co    0.12500   0.74140   0.06250   0.00000  Uiso   1.00
Co900  Co    0.00000   0.61640   0.06250   0.00000  Uiso   1.00
C901   C     0.44520   0.72050   0.14950   0.00000  Uiso   1.00
C902   C     0.43110   0.71975   0.15350   0.00000  Uiso   1.00
C903   C     0.42235   0.68650   0.12900   0.00000  Uiso   1.00
C904   C     0.40730   0.69675   0.12625   0.00000  Uiso   1.00
C905   C     0.40000   0.72150   0.16000   0.00000  Uiso   1.00
C906   C     0.39800   0.67800   0.09200   0.00000  Uiso   1.00
N907   N     0.38597   0.72000   0.15025   0.00000  Uiso   1.00
N908   N     0.38480   0.69450   0.09950   0.00000  Uiso   1.00
H909   H     0.45235   0.50065   0.16700   0.00000  Uiso   1.00
H910   H     0.42757   0.50310   0.17325   0.00000  Uiso   1.00
H911   H     0.40560   0.74150   0.19100   0.00000  Uiso   1.00
H912   H     0.40185   0.65225   0.06825   0.00000  Uiso   1.00
C913   C     0.32020   0.59550   0.14950   0.00000  Uiso   1.00
C914   C     0.30610   0.59475   0.15350   0.00000  Uiso   1.00
C915   C     0.29735   0.56150   0.12900   0.00000  Uiso   1.00
C916   C     0.28230   0.57175   0.12625   0.00000  Uiso   1.00
C917   C     0.27500   0.59650   0.16000   0.00000  Uiso   1.00
C918   C     0.27300   0.55300   0.09200   0.00000  Uiso   1.00
N919   N     0.26098   0.59500   0.15025   0.00000  Uiso   1.00
N920   N     0.25980   0.56950   0.09950   0.00000  Uiso   1.00
H921   H     0.32735   0.62565   0.16700   0.00000  Uiso   1.00
H922   H     0.30258   0.62810   0.17325   0.00000  Uiso   1.00
H923   H     0.28060   0.61650   0.19100   0.00000  Uiso   1.00
H924   H     0.27685   0.52725   0.06825   0.00000  Uiso   1.00
C925   C     0.30480   0.72050   0.22550   0.00000  Uiso   1.00
C926   C     0.31890   0.71975   0.22150   0.00000  Uiso   1.00
C927   C     0.32765   0.68650   0.24600   0.00000  Uiso   1.00
C928   C     0.34270   0.69675   0.24875   0.00000  Uiso   1.00
C929   C     0.35000   0.72150   0.21500   0.00000  Uiso   1.00
C930   C     0.35200   0.67800   0.03300   0.00000  Uiso   1.00
N931   N     0.36402   0.72000   0.22475   0.00000  Uiso   1.00
N932   N     0.36520   0.69450   0.02550   0.00000  Uiso   1.00
H933   H     0.29765   0.50065   0.20800   0.00000  Uiso   1.00
H934   H     0.32243   0.50310   0.20175   0.00000  Uiso   1.00
H935   H     0.34440   0.74150   0.18400   0.00000  Uiso   1.00
H936   H     0.34815   0.65225   0.05675   0.00000  Uiso   1.00
C937   C     0.42980   0.59550   0.22550   0.00000  Uiso   1.00
C938   C     0.44390   0.59475   0.22150   0.00000  Uiso   1.00
C939   C     0.45265   0.56150   0.24600   0.00000  Uiso   1.00
C940   C     0.46770   0.57175   0.24875   0.00000  Uiso   1.00
C941   C     0.47500   0.59650   0.21500   0.00000  Uiso   1.00
C942   C     0.47700   0.55300   0.03300   0.00000  Uiso   1.00
N943   N     0.48902   0.59500   0.22475   0.00000  Uiso   1.00
N944   N     0.49020   0.56950   0.02550   0.00000  Uiso   1.00
H945   H     0.42265   0.62565   0.20800   0.00000  Uiso   1.00
H946   H     0.44742   0.62810   0.20175   0.00000  Uiso   1.00
H947   H     0.46940   0.61650   0.18400   0.00000  Uiso   1.00
H948   H     0.47315   0.52725   0.05675   0.00000  Uiso   1.00
C949   C     0.30480   0.52950   0.10050   0.00000  Uiso   1.00
C950   C     0.31890   0.53025   0.09650   0.00000  Uiso   1.00
C951   C     0.32765   0.56350   0.12100   0.00000  Uiso   1.00
C952   C     0.34270   0.55325   0.12375   0.00000  Uiso   1.00
C953   C     0.35000   0.52850   0.09000   0.00000  Uiso   1.00
C954   C     0.35200   0.57200   0.15800   0.00000  Uiso   1.00
N955   N     0.36402   0.53000   0.09975   0.00000  Uiso   1.00
N956   N     0.36520   0.55550   0.15050   0.00000  Uiso   1.00
H957   H     0.29765   0.74935   0.08300   0.00000  Uiso   1.00
H958   H     0.32243   0.74690   0.07675   0.00000  Uiso   1.00
H959   H     0.34440   0.50850   0.05900   0.00000  Uiso   1.00
H960   H     0.34815   0.59775   0.18175   0.00000  Uiso   1.00
C961   C     0.42980   0.65450   0.10050   0.00000  Uiso   1.00
C962   C     0.44390   0.65525   0.09650   0.00000  Uiso   1.00
C963   C     0.45265   0.68850   0.12100   0.00000  Uiso   1.00
C964   C     0.46770   0.67825   0.12375   0.00000  Uiso   1.00
C965   C     0.47500   0.65350   0.09000   0.00000  Uiso   1.00
C966   C     0.47700   0.69700   0.15800   0.00000  Uiso   1.00
N967   N     0.48902   0.65500   0.09975   0.00000  Uiso   1.00
N968   N     0.49020   0.68050   0.15050   0.00000  Uiso   1.00
H969   H     0.42265   0.62435   0.08300   0.00000  Uiso   1.00
H970   H     0.44742   0.62190   0.07675   0.00000  Uiso   1.00
H971   H     0.46940   0.63350   0.05900   0.00000  Uiso   1.00
H972   H     0.47315   0.72275   0.18175   0.00000  Uiso   1.00
C973   C     0.44520   0.52950   0.02450   0.00000  Uiso   1.00
C974   C     0.43110   0.53025   0.02850   0.00000  Uiso   1.00
C975   C     0.42235   0.56350   0.00400   0.00000  Uiso   1.00
C976   C     0.40730   0.55325   0.00125   0.00000  Uiso   1.00
C977   C     0.40000   0.52850   0.03500   0.00000  Uiso   1.00
C978   C     0.39800   0.57200   0.21700   0.00000  Uiso   1.00
N979   N     0.38597   0.53000   0.02525   0.00000  Uiso   1.00
N980   N     0.38480   0.55550   0.22450   0.00000  Uiso   1.00
H981   H     0.45235   0.74935   0.04200   0.00000  Uiso   1.00
H982   H     0.42757   0.74690   0.04825   0.00000  Uiso   1.00
H983   H     0.40560   0.50850   0.06600   0.00000  Uiso   1.00
H984   H     0.40185   0.59775   0.19325   0.00000  Uiso   1.00
C985   C     0.32020   0.65450   0.02450   0.00000  Uiso   1.00
C986   C     0.30610   0.65525   0.02850   0.00000  Uiso   1.00
C987   C     0.29735   0.68850   0.00400   0.00000  Uiso   1.00
C988   C     0.28230   0.67825   0.00125   0.00000  Uiso   1.00
C989   C     0.27500   0.65350   0.03500   0.00000  Uiso   1.00
C990   C     0.27300   0.69700   0.21700   0.00000  Uiso   1.00
N991   N     0.26098   0.65500   0.02525   0.00000  Uiso   1.00
N992   N     0.25980   0.68050   0.22450   0.00000  Uiso   1.00
H993   H     0.32735   0.62435   0.04200   0.00000  Uiso   1.00
H994   H     0.30258   0.62190   0.04825   0.00000  Uiso   1.00
H995   H     0.28060   0.63350   0.06600   0.00000  Uiso   1.00
H996   H     0.27685   0.72275   0.19325   0.00000  Uiso   1.00
Co997  Co    0.37500   0.50860   0.18750   0.00000  Uiso   1.00
Co998  Co    0.25000   0.63360   0.18750   0.00000  Uiso   1.00
Co999  Co    0.37500   0.74140   0.06250   0.00000  Uiso   1.00
Co1000 Co    0.25000   0.61640   0.06250   0.00000  Uiso   1.00
C1001  C     0.69520   0.72050   0.14950   0.00000  Uiso   1.00
C1002  C     0.68110   0.71975   0.15350   0.00000  Uiso   1.00
C1003  C     0.67235   0.68650   0.12900   0.00000  Uiso   1.00
C1004  C     0.65730   0.69675   0.12625   0.00000  Uiso   1.00
C1005  C     0.65000   0.72150   0.16000   0.00000  Uiso   1.00
C1006  C     0.64800   0.67800   0.09200   0.00000  Uiso   1.00
N1007  N     0.63597   0.72000   0.15025   0.00000  Uiso   1.00
N1008  N     0.63480   0.69450   0.09950   0.00000  Uiso   1.00
H1009  H     0.70235   0.50065   0.16700   0.00000  Uiso   1.00
H1010  H     0.67757   0.50310   0.17325   0.00000  Uiso   1.00
H1011  H     0.65560   0.74150   0.19100   0.00000  Uiso   1.00
H1012  H     0.65185   0.65225   0.06825   0.00000  Uiso   1.00
C1013  C     0.57020   0.59550   0.14950   0.00000  Uiso   1.00
C1014  C     0.55610   0.59475   0.15350   0.00000  Uiso   1.00
C1015  C     0.54735   0.56150   0.12900   0.00000  Uiso   1.00
C1016  C     0.53230   0.57175   0.12625   0.00000  Uiso   1.00
C1017  C     0.52500   0.59650   0.16000   0.00000  Uiso   1.00
C1018  C     0.52300   0.55300   0.09200   0.00000  Uiso   1.00
N1019  N     0.51098   0.59500   0.15025   0.00000  Uiso   1.00
N1020  N     0.50980   0.56950   0.09950   0.00000  Uiso   1.00
H1021  H     0.57735   0.62565   0.16700   0.00000  Uiso   1.00
H1022  H     0.55258   0.62810   0.17325   0.00000  Uiso   1.00
H1023  H     0.53060   0.61650   0.19100   0.00000  Uiso   1.00
H1024  H     0.52685   0.52725   0.06825   0.00000  Uiso   1.00
C1025  C     0.55480   0.72050   0.22550   0.00000  Uiso   1.00
C1026  C     0.56890   0.71975   0.22150   0.00000  Uiso   1.00
C1027  C     0.57765   0.68650   0.24600   0.00000  Uiso   1.00
C1028  C     0.59270   0.69675   0.24875   0.00000  Uiso   1.00
C1029  C     0.60000   0.72150   0.21500   0.00000  Uiso   1.00
C1030  C     0.60200   0.67800   0.03300   0.00000  Uiso   1.00
N1031  N     0.61402   0.72000   0.22475   0.00000  Uiso   1.00
N1032  N     0.61520   0.69450   0.02550   0.00000  Uiso   1.00
H1033  H     0.54765   0.50065   0.20800   0.00000  Uiso   1.00
H1034  H     0.57243   0.50310   0.20175   0.00000  Uiso   1.00
H1035  H     0.59440   0.74150   0.18400   0.00000  Uiso   1.00
H1036  H     0.59815   0.65225   0.05675   0.00000  Uiso   1.00
C1037  C     0.67980   0.59550   0.22550   0.00000  Uiso   1.00
C1038  C     0.69390   0.59475   0.22150   0.00000  Uiso   1.00
C1039  C     0.70265   0.56150   0.24600   0.00000  Uiso   1.00
C1040  C     0.71770   0.57175   0.24875   0.00000  Uiso   1.00
C1041  C     0.72500   0.59650   0.21500   0.00000  Uiso   1.00
C1042  C     0.72700   0.55300   0.03300   0.00000  Uiso   1.00
N1043  N     0.73902   0.59500   0.22475   0.00000  Uiso   1.00
N1044  N     0.74020   0.56950   0.02550   0.00000  Uiso   1.00
H1045  H     0.67265   0.62565   0.20800   0.00000  Uiso   1.00
H1046  H     0.69742   0.62810   0.20175   0.00000  Uiso   1.00
H1047  H     0.71940   0.61650   0.18400   0.00000  Uiso   1.00
H1048  H     0.72315   0.52725   0.05675   0.00000  Uiso   1.00
C1049  C     0.55480   0.52950   0.10050   0.00000  Uiso   1.00
C1050  C     0.56890   0.53025   0.09650   0.00000  Uiso   1.00
C1051  C     0.57765   0.56350   0.12100   0.00000  Uiso   1.00
C1052  C     0.59270   0.55325   0.12375   0.00000  Uiso   1.00
C1053  C     0.60000   0.52850   0.09000   0.00000  Uiso   1.00
C1054  C     0.60200   0.57200   0.15800   0.00000  Uiso   1.00
N1055  N     0.61402   0.53000   0.09975   0.00000  Uiso   1.00
N1056  N     0.61520   0.55550   0.15050   0.00000  Uiso   1.00
H1057  H     0.54765   0.74935   0.08300   0.00000  Uiso   1.00
H1058  H     0.57243   0.74690   0.07675   0.00000  Uiso   1.00
H1059  H     0.59440   0.50850   0.05900   0.00000  Uiso   1.00
H1060  H     0.59815   0.59775   0.18175   0.00000  Uiso   1.00
C1061  C     0.67980   0.65450   0.10050   0.00000  Uiso   1.00
C1062  C     0.69390   0.65525   0.09650   0.00000  Uiso   1.00
C1063  C     0.70265   0.68850   0.12100   0.00000  Uiso   1.00
C1064  C     0.71770   0.67825   0.12375   0.00000  Uiso   1.00
C1065  C     0.72500   0.65350   0.09000   0.00000  Uiso   1.00
C1066  C     0.72700   0.69700   0.15800   0.00000  Uiso   1.00
N1067  N     0.73902   0.65500   0.09975   0.00000  Uiso   1.00
N1068  N     0.74020   0.68050   0.15050   0.00000  Uiso   1.00
H1069  H     0.67265   0.62435   0.08300   0.00000  Uiso   1.00
H1070  H     0.69742   0.62190   0.07675   0.00000  Uiso   1.00
H1071  H     0.71940   0.63350   0.05900   0.00000  Uiso   1.00
H1072  H     0.72315   0.72275   0.18175   0.00000  Uiso   1.00
C1073  C     0.69520   0.52950   0.02450   0.00000  Uiso   1.00
C1074  C     0.68110   0.53025   0.02850   0.00000  Uiso   1.00
C1075  C     0.67235   0.56350   0.00400   0.00000  Uiso   1.00
C1076  C     0.65730   0.55325   0.00125   0.00000  Uiso   1.00
C1077  C     0.65000   0.52850   0.03500   0.00000  Uiso   1.00
C1078  C     0.64800   0.57200   0.21700   0.00000  Uiso   1.00
N1079  N     0.63597   0.53000   0.02525   0.00000  Uiso   1.00
N1080  N     0.63480   0.55550   0.22450   0.00000  Uiso   1.00
H1081  H     0.70235   0.74935   0.04200   0.00000  Uiso   1.00
H1082  H     0.67757   0.74690   0.04825   0.00000  Uiso   1.00
H1083  H     0.65560   0.50850   0.06600   0.00000  Uiso   1.00
H1084  H     0.65185   0.59775   0.19325   0.00000  Uiso   1.00
C1085  C     0.57020   0.65450   0.02450   0.00000  Uiso   1.00
C1086  C     0.55610   0.65525   0.02850   0.00000  Uiso   1.00
C1087  C     0.54735   0.68850   0.00400   0.00000  Uiso   1.00
C1088  C     0.53230   0.67825   0.00125   0.00000  Uiso   1.00
C1089  C     0.52500   0.65350   0.03500   0.00000  Uiso   1.00
C1090  C     0.52300   0.69700   0.21700   0.00000  Uiso   1.00
N1091  N     0.51098   0.65500   0.02525   0.00000  Uiso   1.00
N1092  N     0.50980   0.68050   0.22450   0.00000  Uiso   1.00
H1093  H     0.57735   0.62435   0.04200   0.00000  Uiso   1.00
H1094  H     0.55258   0.62190   0.04825   0.00000  Uiso   1.00
H1095  H     0.53060   0.63350   0.06600   0.00000  Uiso   1.00
H1096  H     0.52685   0.72275   0.19325   0.00000  Uiso   1.00
Co1097 Co    0.62500   0.50860   0.18750   0.00000  Uiso   1.00
Co1098 Co    0.50000   0.63360   0.18750   0.00000  Uiso   1.00
Co1099 Co    0.62500   0.74140   0.06250   0.00000  Uiso   1.00
Co1100 Co    0.50000   0.61640   0.06250   0.00000  Uiso   1.00
C1101  C     0.94520   0.72050   0.14950   0.00000  Uiso   1.00
C1102  C     0.93110   0.71975   0.15350   0.00000  Uiso   1.00
C1103  C     0.92235   0.68650   0.12900   0.00000  Uiso   1.00
C1104  C     0.90730   0.69675   0.12625   0.00000  Uiso   1.00
C1105  C     0.90000   0.72150   0.16000   0.00000  Uiso   1.00
C1106  C     0.89800   0.67800   0.09200   0.00000  Uiso   1.00
N1107  N     0.88597   0.72000   0.15025   0.00000  Uiso   1.00
N1108  N     0.88480   0.69450   0.09950   0.00000  Uiso   1.00
H1109  H     0.95235   0.50065   0.16700   0.00000  Uiso   1.00
H1110  H     0.92757   0.50310   0.17325   0.00000  Uiso   1.00
H1111  H     0.90560   0.74150   0.19100   0.00000  Uiso   1.00
H1112  H     0.90185   0.65225   0.06825   0.00000  Uiso   1.00
C1113  C     0.82020   0.59550   0.14950   0.00000  Uiso   1.00
C1114  C     0.80610   0.59475   0.15350   0.00000  Uiso   1.00
C1115  C     0.79735   0.56150   0.12900   0.00000  Uiso   1.00
C1116  C     0.78230   0.57175   0.12625   0.00000  Uiso   1.00
C1117  C     0.77500   0.59650   0.16000   0.00000  Uiso   1.00
C1118  C     0.77300   0.55300   0.09200   0.00000  Uiso   1.00
N1119  N     0.76097   0.59500   0.15025   0.00000  Uiso   1.00
N1120  N     0.75980   0.56950   0.09950   0.00000  Uiso   1.00
H1121  H     0.82735   0.62565   0.16700   0.00000  Uiso   1.00
H1122  H     0.80257   0.62810   0.17325   0.00000  Uiso   1.00
H1123  H     0.78060   0.61650   0.19100   0.00000  Uiso   1.00
H1124  H     0.77685   0.52725   0.06825   0.00000  Uiso   1.00
C1125  C     0.80480   0.72050   0.22550   0.00000  Uiso   1.00
C1126  C     0.81890   0.71975   0.22150   0.00000  Uiso   1.00
C1127  C     0.82765   0.68650   0.24600   0.00000  Uiso   1.00
C1128  C     0.84270   0.69675   0.24875   0.00000  Uiso   1.00
C1129  C     0.85000   0.72150   0.21500   0.00000  Uiso   1.00
C1130  C     0.85200   0.67800   0.03300   0.00000  Uiso   1.00
N1131  N     0.86402   0.72000   0.22475   0.00000  Uiso   1.00
N1132  N     0.86520   0.69450   0.02550   0.00000  Uiso   1.00
H1133  H     0.79765   0.50065   0.20800   0.00000  Uiso   1.00
H1134  H     0.82242   0.50310   0.20175   0.00000  Uiso   1.00
H1135  H     0.84440   0.74150   0.18400   0.00000  Uiso   1.00
H1136  H     0.84815   0.65225   0.05675   0.00000  Uiso   1.00
C1137  C     0.92980   0.59550   0.22550   0.00000  Uiso   1.00
C1138  C     0.94390   0.59475   0.22150   0.00000  Uiso   1.00
C1139  C     0.95265   0.56150   0.24600   0.00000  Uiso   1.00
C1140  C     0.96770   0.57175   0.24875   0.00000  Uiso   1.00
C1141  C     0.97500   0.59650   0.21500   0.00000  Uiso   1.00
C1142  C     0.97700   0.55300   0.03300   0.00000  Uiso   1.00
N1143  N     0.98902   0.59500   0.22475   0.00000  Uiso   1.00
N1144  N     0.99020   0.56950   0.02550   0.00000  Uiso   1.00
H1145  H     0.92265   0.62565   0.20800   0.00000  Uiso   1.00
H1146  H     0.94742   0.62810   0.20175   0.00000  Uiso   1.00
H1147  H     0.96940   0.61650   0.18400   0.00000  Uiso   1.00
H1148  H     0.97315   0.52725   0.05675   0.00000  Uiso   1.00
C1149  C     0.80480   0.52950   0.10050   0.00000  Uiso   1.00
C1150  C     0.81890   0.53025   0.09650   0.00000  Uiso   1.00
C1151  C     0.82765   0.56350   0.12100   0.00000  Uiso   1.00
C1152  C     0.84270   0.55325   0.12375   0.00000  Uiso   1.00
C1153  C     0.85000   0.52850   0.09000   0.00000  Uiso   1.00
C1154  C     0.85200   0.57200   0.15800   0.00000  Uiso   1.00
N1155  N     0.86402   0.53000   0.09975   0.00000  Uiso   1.00
N1156  N     0.86520   0.55550   0.15050   0.00000  Uiso   1.00
H1157  H     0.79765   0.74935   0.08300   0.00000  Uiso   1.00
H1158  H     0.82242   0.74690   0.07675   0.00000  Uiso   1.00
H1159  H     0.84440   0.50850   0.05900   0.00000  Uiso   1.00
H1160  H     0.84815   0.59775   0.18175   0.00000  Uiso   1.00
C1161  C     0.92980   0.65450   0.10050   0.00000  Uiso   1.00
C1162  C     0.94390   0.65525   0.09650   0.00000  Uiso   1.00
C1163  C     0.95265   0.68850   0.12100   0.00000  Uiso   1.00
C1164  C     0.96770   0.67825   0.12375   0.00000  Uiso   1.00
C1165  C     0.97500   0.65350   0.09000   0.00000  Uiso   1.00
C1166  C     0.97700   0.69700   0.15800   0.00000  Uiso   1.00
N1167  N     0.98902   0.65500   0.09975   0.00000  Uiso   1.00
N1168  N     0.99020   0.68050   0.15050   0.00000  Uiso   1.00
H1169  H     0.92265   0.62435   0.08300   0.00000  Uiso   1.00
H1170  H     0.94742   0.62190   0.07675   0.00000  Uiso   1.00
H1171  H     0.96940   0.63350   0.05900   0.00000  Uiso   1.00
H1172  H     0.97315   0.72275   0.18175   0.00000  Uiso   1.00
C1173  C     0.94520   0.52950   0.02450   0.00000  Uiso   1.00
C1174  C     0.93110   0.53025   0.02850   0.00000  Uiso   1.00
C1175  C     0.92235   0.56350   0.00400   0.00000  Uiso   1.00
C1176  C     0.90730   0.55325   0.00125   0.00000  Uiso   1.00
C1177  C     0.90000   0.52850   0.03500   0.00000  Uiso   1.00
C1178  C     0.89800   0.57200   0.21700   0.00000  Uiso   1.00
N1179  N     0.88597   0.53000   0.02525   0.00000  Uiso   1.00
N1180  N     0.88480   0.55550   0.22450   0.00000  Uiso   1.00
H1181  H     0.95235   0.74935   0.04200   0.00000  Uiso   1.00
H1182  H     0.92757   0.74690   0.04825   0.00000  Uiso   1.00
H1183  H     0.90560   0.50850   0.06600   0.00000  Uiso   1.00
H1184  H     0.90185   0.59775   0.19325   0.00000  Uiso   1.00
C1185  C     0.82020   0.65450   0.02450   0.00000  Uiso   1.00
C1186  C     0.80610   0.65525   0.02850   0.00000  Uiso   1.00
C1187  C     0.79735   0.68850   0.00400   0.00000  Uiso   1.00
C1188  C     0.78230   0.67825   0.00125   0.00000  Uiso   1.00
C1189  C     0.77500   0.65350   0.03500   0.00000  Uiso   1.00
C1190  C     0.77300   0.69700   0.21700   0.00000  Uiso   1.00
N1191  N     0.76097   0.65500   0.02525   0.00000  Uiso   1.00
N1192  N     0.75980   0.68050   0.22450   0.00000  Uiso   1.00
H1193  H     0.82735   0.62435   0.04200   0.00000  Uiso   1.00
H1194  H     0.80257   0.62190   0.04825   0.00000  Uiso   1.00
H1195  H     0.78060   0.63350   0.06600   0.00000  Uiso   1.00
H1196  H     0.77685   0.72275   0.19325   0.00000  Uiso   1.00
Co1197 Co    0.87500   0.50860   0.18750   0.00000  Uiso   1.00
Co1198 Co    0.75000   0.63360   0.18750   0.00000  Uiso   1.00
Co1199 Co    0.87500   0.74140   0.06250   0.00000  Uiso   1.00
Co1200 Co    0.75000   0.61640   0.06250   0.00000  Uiso   1.00
C1201  C     0.19520   0.97050   0.14950   0.00000  Uiso   1.00
C1202  C     0.18110   0.96975   0.15350   0.00000  Uiso   1.00
C1203  C     0.17235   0.93650   0.12900   0.00000  Uiso   1.00
C1204  C     0.15730   0.94675   0.12625   0.00000  Uiso   1.00
C1205  C     0.15000   0.97150   0.16000   0.00000  Uiso   1.00
C1206  C     0.14800   0.92800   0.09200   0.00000  Uiso   1.00
N1207  N     0.13598   0.97000   0.15025   0.00000  Uiso   1.00
N1208  N     0.13480   0.94450   0.09950   0.00000  Uiso   1.00
H1209  H     0.20235   0.75065   0.16700   0.00000  Uiso   1.00
H1210  H     0.17758   0.75310   0.17325   0.00000  Uiso   1.00
H1211  H     0.15560   0.99150   0.19100   0.00000  Uiso   1.00
H1212  H     0.15185   0.90225   0.06825   0.00000  Uiso   1.00
C1213  C     0.07020   0.84550   0.14950   0.00000  Uiso   1.00
C1214  C     0.05610   0.84475   0.15350   0.00000  Uiso   1.00
C1215  C     0.04735   0.81150   0.12900   0.00000  Uiso   1.00
C1216  C     0.03230   0.82175   0.12625   0.00000  Uiso   1.00
C1217  C     0.02500   0.84650   0.16000   0.00000  Uiso   1.00
C1218  C     0.02300   0.80300   0.09200   0.00000  Uiso   1.00
N1219  N     0.01098   0.84500   0.15025   0.00000  Uiso   1.00
N1220  N     0.00980   0.81950   0.09950   0.00000  Uiso   1.00
H1221  H     0.07735   0.87565   0.16700   0.00000  Uiso   1.00
H1222  H     0.05258   0.87810   0.17325   0.00000  Uiso   1.00
H1223  H     0.03060   0.86650   0.19100   0.00000  Uiso   1.00
H1224  H     0.02685   0.77725   0.06825   0.00000  Uiso   1.00
C1225  C     0.05480   0.97050   0.22550   0.00000  Uiso   1.00
C1226  C     0.06890   0.96975   0.22150   0.00000  Uiso   1.00
C1227  C     0.07765   0.93650   0.24600   0.00000  Uiso   1.00
C1228  C     0.09270   0.94675   0.24875   0.00000  Uiso   1.00
C1229  C     0.10000   0.97150   0.21500   0.00000  Uiso   1.00
C1230  C     0.10200   0.92800   0.03300   0.00000  Uiso   1.00
N1231  N     0.11403   0.97000   0.22475   0.00000  Uiso   1.00
N1232  N     0.11520   0.94450   0.02550   0.00000  Uiso   1.00
H1233  H     0.04765   0.75065   0.20800   0.00000  Uiso   1.00
H1234  H     0.07243   0.75310   0.20175   0.00000  Uiso   1.00
H1235  H     0.09440   0.99150   0.18400   0.00000  Uiso   1.00
H1236  H     0.09815   0.90225   0.05675   0.00000  Uiso   1.00
C1237  C     0.17980   0.84550   0.22550   0.00000  Uiso   1.00
C1238  C     0.19390   0.84475   0.22150   0.00000  Uiso   1.00
C1239  C     0.20265   0.81150   0.24600   0.00000  Uiso   1.00
C1240  C     0.21770   0.82175   0.24875   0.00000  Uiso   1.00
C1241  C     0.22500   0.84650   0.21500   0.00000  Uiso   1.00
C1242  C     0.22700   0.80300   0.03300   0.00000  Uiso   1.00
N1243  N     0.23902   0.84500   0.22475   0.00000  Uiso   1.00
N1244  N     0.24020   0.81950   0.02550   0.00000  Uiso   1.00
H1245  H     0.17265   0.87565   0.20800   0.00000  Uiso   1.00
H1246  H     0.19742   0.87810   0.20175   0.00000  Uiso   1.00
H1247  H     0.21940   0.86650   0.18400   0.00000  Uiso   1.00
H1248  H     0.22315   0.77725   0.05675   0.00000  Uiso   1.00
C1249  C     0.05480   0.77950   0.10050   0.00000  Uiso   1.00
C1250  C     0.06890   0.78025   0.09650   0.00000  Uiso   1.00
C1251  C     0.07765   0.81350   0.12100   0.00000  Uiso   1.00
C1252  C     0.09270   0.80325   0.12375   0.00000  Uiso   1.00
C1253  C     0.10000   0.77850   0.09000   0.00000  Uiso   1.00
C1254  C     0.10200   0.82200   0.15800   0.00000  Uiso   1.00
N1255  N     0.11403   0.78000   0.09975   0.00000  Uiso   1.00
N1256  N     0.11520   0.80550   0.15050   0.00000  Uiso   1.00
H1257  H     0.04765   0.99935   0.08300   0.00000  Uiso   1.00
H1258  H     0.07243   0.99690   0.07675   0.00000  Uiso   1.00
H1259  H     0.09440   0.75850   0.05900   0.00000  Uiso   1.00
H1260  H     0.09815   0.84775   0.18175   0.00000  Uiso   1.00
C1261  C     0.17980   0.90450   0.10050   0.00000  Uiso   1.00
C1262  C     0.19390   0.90525   0.09650   0.00000  Uiso   1.00
C1263  C     0.20265   0.93850   0.12100   0.00000  Uiso   1.00
C1264  C     0.21770   0.92825   0.12375   0.00000  Uiso   1.00
C1265  C     0.22500   0.90350   0.09000   0.00000  Uiso   1.00
C1266  C     0.22700   0.94700   0.15800   0.00000  Uiso   1.00
N1267  N     0.23902   0.90500   0.09975   0.00000  Uiso   1.00
N1268  N     0.24020   0.93050   0.15050   0.00000  Uiso   1.00
H1269  H     0.17265   0.87435   0.08300   0.00000  Uiso   1.00
H1270  H     0.19742   0.87190   0.07675   0.00000  Uiso   1.00
H1271  H     0.21940   0.88350   0.05900   0.00000  Uiso   1.00
H1272  H     0.22315   0.97275   0.18175   0.00000  Uiso   1.00
C1273  C     0.19520   0.77950   0.02450   0.00000  Uiso   1.00
C1274  C     0.18110   0.78025   0.02850   0.00000  Uiso   1.00
C1275  C     0.17235   0.81350   0.00400   0.00000  Uiso   1.00
C1276  C     0.15730   0.80325   0.00125   0.00000  Uiso   1.00
C1277  C     0.15000   0.77850   0.03500   0.00000  Uiso   1.00
C1278  C     0.14800   0.82200   0.21700   0.00000  Uiso   1.00
N1279  N     0.13598   0.78000   0.02525   0.00000  Uiso   1.00
N1280  N     0.13480   0.80550   0.22450   0.00000  Uiso   1.00
H1281  H     0.20235   0.99935   0.04200   0.00000  Uiso   1.00
H1282  H     0.17758   0.99690   0.04825   0.00000  Uiso   1.00
H1283  H     0.15560   0.75850   0.06600   0.00000  Uiso   1.00
H1284  H     0.15185   0.84775   0.19325   0.00000  Uiso   1.00
C1285  C     0.07020   0.90450   0.02450   0.00000  Uiso   1.00
C1286  C     0.05610   0.90525   0.02850   0.00000  Uiso   1.00
C1287  C     0.04735   0.93850   0.00400   0.00000  Uiso   1.00
C1288  C     0.03230   0.92825   0.00125   0.00000  Uiso   1.00
C1289  C     0.02500   0.90350   0.03500   0.00000  Uiso   1.00
C1290  C     0.02300   0.94700   0.21700   0.00000  Uiso   1.00
N1291  N     0.01098   0.90500   0.02525   0.00000  Uiso   1.00
N1292  N     0.00980   0.93050   0.22450   0.00000  Uiso   1.00
H1293  H     0.07735   0.87435   0.04200   0.00000  Uiso   1.00
H1294  H     0.05258   0.87190   0.04825   0.00000  Uiso   1.00
H1295  H     0.03060   0.88350   0.06600   0.00000  Uiso   1.00
H1296  H     0.02685   0.97275   0.19325   0.00000  Uiso   1.00
Co1297 Co    0.12500   0.75860   0.18750   0.00000  Uiso   1.00
Co1298 Co    0.00000   0.88360   0.18750   0.00000  Uiso   1.00
Co1299 Co    0.12500   0.99140   0.06250   0.00000  Uiso   1.00
Co1300 Co    0.00000   0.86640   0.06250   0.00000  Uiso   1.00
C1301  C     0.44520   0.97050   0.14950   0.00000  Uiso   1.00
C1302  C     0.43110   0.96975   0.15350   0.00000  Uiso   1.00
C1303  C     0.42235   0.93650   0.12900   0.00000  Uiso   1.00
C1304  C     0.40730   0.94675   0.12625   0.00000  Uiso   1.00
C1305  C     0.40000   0.97150   0.16000   0.00000  Uiso   1.00
C1306  C     0.39800   0.92800   0.09200   0.00000  Uiso   1.00
N1307  N     0.38597   0.97000   0.15025   0.00000  Uiso   1.00
N1308  N     0.38480   0.94450   0.09950   0.00000  Uiso   1.00
H1309  H     0.45235   0.75065   0.16700   0.00000  Uiso   1.00
H1310  H     0.42757   0.75310   0.17325   0.00000  Uiso   1.00
H1311  H     0.40560   0.99150   0.19100   0.00000  Uiso   1.00
H1312  H     0.40185   0.90225   0.06825   0.00000  Uiso   1.00
C1313  C     0.32020   0.84550   0.14950   0.00000  Uiso   1.00
C1314  C     0.30610   0.84475   0.15350   0.00000  Uiso   1.00
C1315  C     0.29735   0.81150   0.12900   0.00000  Uiso   1.00
C1316  C     0.28230   0.82175   0.12625   0.00000  Uiso   1.00
C1317  C     0.27500   0.84650   0.16000   0.00000  Uiso   1.00
C1318  C     0.27300   0.80300   0.09200   0.00000  Uiso   1.00
N1319  N     0.26098   0.84500   0.15025   0.00000  Uiso   1.00
N1320  N     0.25980   0.81950   0.09950   0.00000  Uiso   1.00
H1321  H     0.32735   0.87565   0.16700   0.00000  Uiso   1.00
H1322  H     0.30258   0.87810   0.17325   0.00000  Uiso   1.00
H1323  H     0.28060   0.86650   0.19100   0.00000  Uiso   1.00
H1324  H     0.27685   0.77725   0.06825   0.00000  Uiso   1.00
C1325  C     0.30480   0.97050   0.22550   0.00000  Uiso   1.00
C1326  C     0.31890   0.96975   0.22150   0.00000  Uiso   1.00
C1327  C     0.32765   0.93650   0.24600   0.00000  Uiso   1.00
C1328  C     0.34270   0.94675   0.24875   0.00000  Uiso   1.00
C1329  C     0.35000   0.97150   0.21500   0.00000  Uiso   1.00
C1330  C     0.35200   0.92800   0.03300   0.00000  Uiso   1.00
N1331  N     0.36402   0.97000   0.22475   0.00000  Uiso   1.00
N1332  N     0.36520   0.94450   0.02550   0.00000  Uiso   1.00
H1333  H     0.29765   0.75065   0.20800   0.00000  Uiso   1.00
H1334  H     0.32243   0.75310   0.20175   0.00000  Uiso   1.00
H1335  H     0.34440   0.99150   0.18400   0.00000  Uiso   1.00
H1336  H     0.34815   0.90225   0.05675   0.00000  Uiso   1.00
C1337  C     0.42980   0.84550   0.22550   0.00000  Uiso   1.00
C1338  C     0.44390   0.84475   0.22150   0.00000  Uiso   1.00
C1339  C     0.45265   0.81150   0.24600   0.00000  Uiso   1.00
C1340  C     0.46770   0.82175   0.24875   0.00000  Uiso   1.00
C1341  C     0.47500   0.84650   0.21500   0.00000  Uiso   1.00
C1342  C     0.47700   0.80300   0.03300   0.00000  Uiso   1.00
N1343  N     0.48902   0.84500   0.22475   0.00000  Uiso   1.00
N1344  N     0.49020   0.81950   0.02550   0.00000  Uiso   1.00
H1345  H     0.42265   0.87565   0.20800   0.00000  Uiso   1.00
H1346  H     0.44742   0.87810   0.20175   0.00000  Uiso   1.00
H1347  H     0.46940   0.86650   0.18400   0.00000  Uiso   1.00
H1348  H     0.47315   0.77725   0.05675   0.00000  Uiso   1.00
C1349  C     0.30480   0.77950   0.10050   0.00000  Uiso   1.00
C1350  C     0.31890   0.78025   0.09650   0.00000  Uiso   1.00
C1351  C     0.32765   0.81350   0.12100   0.00000  Uiso   1.00
C1352  C     0.34270   0.80325   0.12375   0.00000  Uiso   1.00
C1353  C     0.35000   0.77850   0.09000   0.00000  Uiso   1.00
C1354  C     0.35200   0.82200   0.15800   0.00000  Uiso   1.00
N1355  N     0.36402   0.78000   0.09975   0.00000  Uiso   1.00
N1356  N     0.36520   0.80550   0.15050   0.00000  Uiso   1.00
H1357  H     0.29765   0.99935   0.08300   0.00000  Uiso   1.00
H1358  H     0.32243   0.99690   0.07675   0.00000  Uiso   1.00
H1359  H     0.34440   0.75850   0.05900   0.00000  Uiso   1.00
H1360  H     0.34815   0.84775   0.18175   0.00000  Uiso   1.00
C1361  C     0.42980   0.90450   0.10050   0.00000  Uiso   1.00
C1362  C     0.44390   0.90525   0.09650   0.00000  Uiso   1.00
C1363  C     0.45265   0.93850   0.12100   0.00000  Uiso   1.00
C1364  C     0.46770   0.92825   0.12375   0.00000  Uiso   1.00
C1365  C     0.47500   0.90350   0.09000   0.00000  Uiso   1.00
C1366  C     0.47700   0.94700   0.15800   0.00000  Uiso   1.00
N1367  N     0.48902   0.90500   0.09975   0.00000  Uiso   1.00
N1368  N     0.49020   0.93050   0.15050   0.00000  Uiso   1.00
H1369  H     0.42265   0.87435   0.08300   0.00000  Uiso   1.00
H1370  H     0.44742   0.87190   0.07675   0.00000  Uiso   1.00
H1371  H     0.46940   0.88350   0.05900   0.00000  Uiso   1.00
H1372  H     0.47315   0.97275   0.18175   0.00000  Uiso   1.00
C1373  C     0.44520   0.77950   0.02450   0.00000  Uiso   1.00
C1374  C     0.43110   0.78025   0.02850   0.00000  Uiso   1.00
C1375  C     0.42235   0.81350   0.00400   0.00000  Uiso   1.00
C1376  C     0.40730   0.80325   0.00125   0.00000  Uiso   1.00
C1377  C     0.40000   0.77850   0.03500   0.00000  Uiso   1.00
C1378  C     0.39800   0.82200   0.21700   0.00000  Uiso   1.00
N1379  N     0.38597   0.78000   0.02525   0.00000  Uiso   1.00
N1380  N     0.38480   0.80550   0.22450   0.00000  Uiso   1.00
H1381  H     0.45235   0.99935   0.04200   0.00000  Uiso   1.00
H1382  H     0.42757   0.99690   0.04825   0.00000  Uiso   1.00
H1383  H     0.40560   0.75850   0.06600   0.00000  Uiso   1.00
H1384  H     0.40185   0.84775   0.19325   0.00000  Uiso   1.00
C1385  C     0.32020   0.90450   0.02450   0.00000  Uiso   1.00
C1386  C     0.30610   0.90525   0.02850   0.00000  Uiso   1.00
C1387  C     0.29735   0.93850   0.00400   0.00000  Uiso   1.00
C1388  C     0.28230   0.92825   0.00125   0.00000  Uiso   1.00
C1389  C     0.27500   0.90350   0.03500   0.00000  Uiso   1.00
C1390  C     0.27300   0.94700   0.21700   0.00000  Uiso   1.00
N1391  N     0.26098   0.90500   0.02525   0.00000  Uiso   1.00
N1392  N     0.25980   0.93050   0.22450   0.00000  Uiso   1.00
H1393  H     0.32735   0.87435   0.04200   0.00000  Uiso   1.00
H1394  H     0.30258   0.87190   0.04825   0.00000  Uiso   1.00
H1395  H     0.28060   0.88350   0.06600   0.00000  Uiso   1.00
H1396  H     0.27685   0.97275   0.19325   0.00000  Uiso   1.00
Co1397 Co    0.37500   0.75860   0.18750   0.00000  Uiso   1.00
Co1398 Co    0.25000   0.88360   0.18750   0.00000  Uiso   1.00
Co1399 Co    0.37500   0.99140   0.06250   0.00000  Uiso   1.00
Co1400 Co    0.25000   0.86640   0.06250   0.00000  Uiso   1.00
C1401  C     0.69520   0.97050   0.14950   0.00000  Uiso   1.00
C1402  C     0.68110   0.96975   0.15350   0.00000  Uiso   1.00
C1403  C     0.67235   0.93650   0.12900   0.00000  Uiso   1.00
C1404  C     0.65730   0.94675   0.12625   0.00000  Uiso   1.00
C1405  C     0.65000   0.97150   0.16000   0.00000  Uiso   1.00
C1406  C     0.64800   0.92800   0.09200   0.00000  Uiso   1.00
N1407  N     0.63597   0.97000   0.15025   0.00000  Uiso   1.00
N1408  N     0.63480   0.94450   0.09950   0.00000  Uiso   1.00
H1409  H     0.70235   0.75065   0.16700   0.00000  Uiso   1.00
H1410  H     0.67757   0.75310   0.17325   0.00000  Uiso   1.00
H1411  H     0.65560   0.99150   0.19100   0.00000  Uiso   1.00
H1412  H     0.65185   0.90225   0.06825   0.00000  Uiso   1.00
C1413  C     0.57020   0.84550   0.14950   0.00000  Uiso   1.00
C1414  C     0.55610   0.84475   0.15350   0.00000  Uiso   1.00
C1415  C     0.54735   0.81150   0.12900   0.00000  Uiso   1.00
C1416  C     0.53230   0.82175   0.12625   0.00000  Uiso   1.00
C1417  C     0.52500   0.84650   0.16000   0.00000  Uiso   1.00
C1418  C     0.52300   0.80300   0.09200   0.00000  Uiso   1.00
N1419  N     0.51098   0.84500   0.15025   0.00000  Uiso   1.00
N1420  N     0.50980   0.81950   0.09950   0.00000  Uiso   1.00
H1421  H     0.57735   0.87565   0.16700   0.00000  Uiso   1.00
H1422  H     0.55258   0.87810   0.17325   0.00000  Uiso   1.00
H1423  H     0.53060   0.86650   0.19100   0.00000  Uiso   1.00
H1424  H     0.52685   0.77725   0.06825   0.00000  Uiso   1.00
C1425  C     0.55480   0.97050   0.22550   0.00000  Uiso   1.00
C1426  C     0.56890   0.96975   0.22150   0.00000  Uiso   1.00
C1427  C     0.57765   0.93650   0.24600   0.00000  Uiso   1.00
C1428  C     0.59270   0.94675   0.24875   0.00000  Uiso   1.00
C1429  C     0.60000   0.97150   0.21500   0.00000  Uiso   1.00
C1430  C     0.60200   0.92800   0.03300   0.00000  Uiso   1.00
N1431  N     0.61402   0.97000   0.22475   0.00000  Uiso   1.00
N1432  N     0.61520   0.94450   0.02550   0.00000  Uiso   1.00
H1433  H     0.54765   0.75065   0.20800   0.00000  Uiso   1.00
H1434  H     0.57243   0.75310   0.20175   0.00000  Uiso   1.00
H1435  H     0.59440   0.99150   0.18400   0.00000  Uiso   1.00
H1436  H     0.59815   0.90225   0.05675   0.00000  Uiso   1.00
C1437  C     0.67980   0.84550   0.22550   0.00000  Uiso   1.00
C1438  C     0.69390   0.84475   0.22150   0.00000  Uiso   1.00
C1439  C     0.70265   0.81150   0.24600   0.00000  Uiso   1.00
C1440  C     0.71770   0.82175   0.24875   0.00000  Uiso   1.00
C1441  C     0.72500   0.84650   0.21500   0.00000  Uiso   1.00
C1442  C     0.72700   0.80300   0.03300   0.00000  Uiso   1.00
N1443  N     0.73902   0.84500   0.22475   0.00000  Uiso   1.00
N1444  N     0.74020   0.81950   0.02550   0.00000  Uiso   1.00
H1445  H     0.67265   0.87565   0.20800   0.00000  Uiso   1.00
H1446  H     0.69742   0.87810   0.20175   0.00000  Uiso   1.00
H1447  H     0.71940   0.86650   0.18400   0.00000  Uiso   1.00
H1448  H     0.72315   0.77725   0.05675   0.00000  Uiso   1.00
C1449  C     0.55480   0.77950   0.10050   0.00000  Uiso   1.00
C1450  C     0.56890   0.78025   0.09650   0.00000  Uiso   1.00
C1451  C     0.57765   0.81350   0.12100   0.00000  Uiso   1.00
C1452  C     0.59270   0.80325   0.12375   0.00000  Uiso   1.00
C1453  C     0.60000   0.77850   0.09000   0.00000  Uiso   1.00
C1454  C     0.60200   0.82200   0.15800   0.00000  Uiso   1.00
N1455  N     0.61402   0.78000   0.09975   0.00000  Uiso   1.00
N1456  N     0.61520   0.80550   0.15050   0.00000  Uiso   1.00
H1457  H     0.54765   0.99935   0.08300   0.00000  Uiso   1.00
H1458  H     0.57243   0.99690   0.07675   0.00000  Uiso   1.00
H1459  H     0.59440   0.75850   0.05900   0.00000  Uiso   1.00
H1460  H     0.59815   0.84775   0.18175   0.00000  Uiso   1.00
C1461  C     0.67980   0.90450   0.10050   0.00000  Uiso   1.00
C1462  C     0.69390   0.90525   0.09650   0.00000  Uiso   1.00
C1463  C     0.70265   0.93850   0.12100   0.00000  Uiso   1.00
C1464  C     0.71770   0.92825   0.12375   0.00000  Uiso   1.00
C1465  C     0.72500   0.90350   0.09000   0.00000  Uiso   1.00
C1466  C     0.72700   0.94700   0.15800   0.00000  Uiso   1.00
N1467  N     0.73902   0.90500   0.09975   0.00000  Uiso   1.00
N1468  N     0.74020   0.93050   0.15050   0.00000  Uiso   1.00
H1469  H     0.67265   0.87435   0.08300   0.00000  Uiso   1.00
H1470  H     0.69742   0.87190   0.07675   0.00000  Uiso   1.00
H1471  H     0.71940   0.88350   0.05900   0.00000  Uiso   1.00
H1472  H     0.72315   0.97275   0.18175   0.00000  Uiso   1.00
C1473  C     0.69520   0.77950   0.02450   0.00000  Uiso   1.00
C1474  C     0.68110   0.78025   0.02850   0.00000  Uiso   1.00
C1475  C     0.67235   0.81350   0.00400   0.00000  Uiso   1.00
C1476  C     0.65730   0.80325   0.00125   0.00000  Uiso   1.00
C1477  C     0.65000   0.77850   0.03500   0.00000  Uiso   1.00
C1478  C     0.64800   0.82200   0.21700   0.00000  Uiso   1.00
N1479  N     0.63597   0.78000   0.02525   0.00000  Uiso   1.00
N1480  N     0.63480   0.80550   0.22450   0.00000  Uiso   1.00
H1481  H     0.70235   0.99935   0.04200   0.00000  Uiso   1.00
H1482  H     0.67757   0.99690   0.04825   0.00000  Uiso   1.00
H1483  H     0.65560   0.75850   0.06600   0.00000  Uiso   1.00
H1484  H     0.65185   0.84775   0.19325   0.00000  Uiso   1.00
C1485  C     0.57020   0.90450   0.02450   0.00000  Uiso   1.00
C1486  C     0.55610   0.90525   0.02850   0.00000  Uiso   1.00
C1487  C     0.54735   0.93850   0.00400   0.00000  Uiso   1.00
C1488  C     0.53230   0.92825   0.00125   0.00000  Uiso   1.00
C1489  C     0.52500   0.90350   0.03500   0.00000  Uiso   1.00
C1490  C     0.52300   0.94700   0.21700   0.00000  Uiso   1.00
N1491  N     0.51098   0.90500   0.02525   0.00000  Uiso   1.00
N1492  N     0.50980   0.93050   0.22450   0.00000  Uiso   1.00
H1493  H     0.57735   0.87435   0.04200   0.00000  Uiso   1.00
H1494  H     0.55258   0.87190   0.04825   0.00000  Uiso   1.00
H1495  H     0.53060   0.88350   0.06600   0.00000  Uiso   1.00
H1496  H     0.52685   0.97275   0.19325   0.00000  Uiso   1.00
Co1497 Co    0.62500   0.75860   0.18750   0.00000  Uiso   1.00
Co1498 Co    0.50000   0.88360   0.18750   0.00000  Uiso   1.00
Co1499 Co    0.62500   0.99140   0.06250   0.00000  Uiso   1.00
Co1500 Co    0.50000   0.86640   0.06250   0.00000  Uiso   1.00
C1501  C     0.94520   0.97050   0.14950   0.00000  Uiso   1.00
C1502  C     0.93110   0.96975   0.15350   0.00000  Uiso   1.00
C1503  C     0.92235   0.93650   0.12900   0.00000  Uiso   1.00
C1504  C     0.90730   0.94675   0.12625   0.00000  Uiso   1.00
C1505  C     0.90000   0.97150   0.16000   0.00000  Uiso   1.00
C1506  C     0.89800   0.92800   0.09200   0.00000  Uiso   1.00
N1507  N     0.88597   0.97000   0.15025   0.00000  Uiso   1.00
N1508  N     0.88480   0.94450   0.09950   0.00000  Uiso   1.00
H1509  H     0.95235   0.75065   0.16700   0.00000  Uiso   1.00
H1510  H     0.92757   0.75310   0.17325   0.00000  Uiso   1.00
H1511  H     0.90560   0.99150   0.19100   0.00000  Uiso   1.00
H1512  H     0.90185   0.90225   0.06825   0.00000  Uiso   1.00
C1513  C     0.82020   0.84550   0.14950   0.00000  Uiso   1.00
C1514  C     0.80610   0.84475   0.15350   0.00000  Uiso   1.00
C1515  C     0.79735   0.81150   0.12900   0.00000  Uiso   1.00
C1516  C     0.78230   0.82175   0.12625   0.00000  Uiso   1.00
C1517  C     0.77500   0.84650   0.16000   0.00000  Uiso   1.00
C1518  C     0.77300   0.80300   0.09200   0.00000  Uiso   1.00
N1519  N     0.76097   0.84500   0.15025   0.00000  Uiso   1.00
N1520  N     0.75980   0.81950   0.09950   0.00000  Uiso   1.00
H1521  H     0.82735   0.87565   0.16700   0.00000  Uiso   1.00
H1522  H     0.80257   0.87810   0.17325   0.00000  Uiso   1.00
H1523  H     0.78060   0.86650   0.19100   0.00000  Uiso   1.00
H1524  H     0.77685   0.77725   0.06825   0.00000  Uiso   1.00
C1525  C     0.80480   0.97050   0.22550   0.00000  Uiso   1.00
C1526  C     0.81890   0.96975   0.22150   0.00000  Uiso   1.00
C1527  C     0.82765   0.93650   0.24600   0.00000  Uiso   1.00
C1528  C     0.84270   0.94675   0.24875   0.00000  Uiso   1.00
C1529  C     0.85000   0.97150   0.21500   0.00000  Uiso   1.00
C1530  C     0.85200   0.92800   0.03300   0.00000  Uiso   1.00
N1531  N     0.86402   0.97000   0.22475   0.00000  Uiso   1.00
N1532  N     0.86520   0.94450   0.02550   0.00000  Uiso   1.00
H1533  H     0.79765   0.75065   0.20800   0.00000  Uiso   1.00
H1534  H     0.82242   0.75310   0.20175   0.00000  Uiso   1.00
H1535  H     0.84440   0.99150   0.18400   0.00000  Uiso   1.00
H1536  H     0.84815   0.90225   0.05675   0.00000  Uiso   1.00
C1537  C     0.92980   0.84550   0.22550   0.00000  Uiso   1.00
C1538  C     0.94390   0.84475   0.22150   0.00000  Uiso   1.00
C1539  C     0.95265   0.81150   0.24600   0.00000  Uiso   1.00
C1540  C     0.96770   0.82175   0.24875   0.00000  Uiso   1.00
C1541  C     0.97500   0.84650   0.21500   0.00000  Uiso   1.00
C1542  C     0.97700   0.80300   0.03300   0.00000  Uiso   1.00
N1543  N     0.98902   0.84500   0.22475   0.00000  Uiso   1.00
N1544  N     0.99020   0.81950   0.02550   0.00000  Uiso   1.00
H1545  H     0.92265   0.87565   0.20800   0.00000  Uiso   1.00
H1546  H     0.94742   0.87810   0.20175   0.00000  Uiso   1.00
H1547  H     0.96940   0.86650   0.18400   0.00000  Uiso   1.00
H1548  H     0.97315   0.77725   0.05675   0.00000  Uiso   1.00
C1549  C     0.80480   0.77950   0.10050   0.00000  Uiso   1.00
C1550  C     0.81890   0.78025   0.09650   0.00000  Uiso   1.00
C1551  C     0.82765   0.81350   0.12100   0.00000  Uiso   1.00
C1552  C     0.84270   0.80325   0.12375   0.00000  Uiso   1.00
C1553  C     0.85000   0.77850   0.09000   0.00000  Uiso   1.00
C1554  C     0.85200   0.82200   0.15800   0.00000  Uiso   1.00
N1555  N     0.86402   0.78000   0.09975   0.00000  Uiso   1.00
N1556  N     0.86520   0.80550   0.15050   0.00000  Uiso   1.00
H1557  H     0.79765   0.99935   0.08300   0.00000  Uiso   1.00
H1558  H     0.82242   0.99690   0.07675   0.00000  Uiso   1.00
H1559  H     0.84440   0.75850   0.05900   0.00000  Uiso   1.00
H1560  H     0.84815   0.84775   0.18175   0.00000  Uiso   1.00
C1561  C     0.92980   0.90450   0.10050   0.00000  Uiso   1.00
C1562  C     0.94390   0.90525   0.09650   0.00000  Uiso   1.00
C1563  C     0.95265   0.93850   0.12100   0.00000  Uiso   1.00
C1564  C     0.96770   0.92825   0.12375   0.00000  Uiso   1.00
C1565  C     0.97500   0.90350   0.09000   0.00000  Uiso   1.00
C1566  C     0.97700   0.94700   0.15800   0.00000  Uiso   1.00
N1567  N     0.98902   0.90500   0.09975   0.00000  Uiso   1.00
N1568  N     0.99020   0.93050   0.15050   0.00000  Uiso   1.00
H1569  H     0.92265   0.87435   0.08300   0.00000  Uiso   1.00
H1570  H     0.94742   0.87190   0.07675   0.00000  Uiso   1.00
H1571  H     0.96940   0.88350   0.05900   0.00000  Uiso   1.00
H1572  H     0.97315   0.97275   0.18175   0.00000  Uiso   1.00
C1573  C     0.94520   0.77950   0.02450   0.00000  Uiso   1.00
C1574  C     0.93110   0.78025   0.02850   0.00000  Uiso   1.00
C1575  C     0.92235   0.81350   0.00400   0.00000  Uiso   1.00
C1576  C     0.90730   0.80325   0.00125   0.00000  Uiso   1.00
C1577  C     0.90000   0.77850   0.03500   0.00000  Uiso   1.00
C1578  C     0.89800   0.82200   0.21700   0.00000  Uiso   1.00
N1579  N     0.88597   0.78000   0.02525   0.00000  Uiso   1.00
N1580  N     0.88480   0.80550   0.22450   0.00000  Uiso   1.00
H1581  H     0.95235   0.99935   0.04200   0.00000  Uiso   1.00
H1582  H     0.92757   0.99690   0.04825   0.00000  Uiso   1.00
H1583  H     0.90560   0.75850   0.06600   0.00000  Uiso   1.00
H1584  H     0.90185   0.84775   0.19325   0.00000  Uiso   1.00
C1585  C     0.82020   0.90450   0.02450   0.00000  Uiso   1.00
C1586  C     0.80610   0.90525   0.02850   0.00000  Uiso   1.00
C1587  C     0.79735   0.93850   0.00400   0.00000  Uiso   1.00
C1588  C     0.78230   0.92825   0.00125   0.00000  Uiso   1.00
C1589  C     0.77500   0.90350   0.03500   0.00000  Uiso   1.00
C1590  C     0.77300   0.94700   0.21700   0.00000  Uiso   1.00
N1591  N     0.76097   0.90500   0.02525   0.00000  Uiso   1.00
N1592  N     0.75980   0.93050   0.22450   0.00000  Uiso   1.00
H1593  H     0.82735   0.87435   0.04200   0.00000  Uiso   1.00
H1594  H     0.80257   0.87190   0.04825   0.00000  Uiso   1.00
H1595  H     0.78060   0.88350   0.06600   0.00000  Uiso   1.00
H1596  H     0.77685   0.97275   0.19325   0.00000  Uiso   1.00
Co1597 Co    0.87500   0.75860   0.18750   0.00000  Uiso   1.00
Co1598 Co    0.75000   0.88360   0.18750   0.00000  Uiso   1.00
Co1599 Co    0.87500   0.99140   0.06250   0.00000  Uiso   1.00
Co1600 Co    0.75000   0.86640   0.06250   0.00000  Uiso   1.00
C1601  C     0.19520   0.22050   0.39950   0.00000  Uiso   1.00
C1602  C     0.18110   0.21975   0.40350   0.00000  Uiso   1.00
C1603  C     0.17235   0.18650   0.37900   0.00000  Uiso   1.00
C1604  C     0.15730   0.19675   0.37625   0.00000  Uiso   1.00
C1605  C     0.15000   0.22150   0.41000   0.00000  Uiso   1.00
C1606  C     0.14800   0.17800   0.34200   0.00000  Uiso   1.00
N1607  N     0.13598   0.22000   0.40025   0.00000  Uiso   1.00
N1608  N     0.13480   0.19450   0.34950   0.00000  Uiso   1.00
H1609  H     0.20235   0.00065   0.41700   0.00000  Uiso   1.00
H1610  H     0.17758   0.00310   0.42325   0.00000  Uiso   1.00
H1611  H     0.15560   0.24150   0.44100   0.00000  Uiso   1.00
H1612  H     0.15185   0.15225   0.31825   0.00000  Uiso   1.00
C1613  C     0.07020   0.09550   0.39950   0.00000  Uiso   1.00
C1614  C     0.05610   0.09475   0.40350   0.00000  Uiso   1.00
C1615  C     0.04735   0.06150   0.37900   0.00000  Uiso   1.00
C1616  C     0.03230   0.07175   0.37625   0.00000  Uiso   1.00
C1617  C     0.02500   0.09650   0.41000   0.00000  Uiso   1.00
C1618  C     0.02300   0.05300   0.34200   0.00000  Uiso   1.00
N1619  N     0.01098   0.09500   0.40025   0.00000  Uiso   1.00
N1620  N     0.00980   0.06950   0.34950   0.00000  Uiso   1.00
H1621  H     0.07735   0.12565   0.41700   0.00000  Uiso   1.00
H1622  H     0.05258   0.12810   0.42325   0.00000  Uiso   1.00
H1623  H     0.03060   0.11650   0.44100   0.00000  Uiso   1.00
H1624  H     0.02685   0.02725   0.31825   0.00000  Uiso   1.00
C1625  C     0.05480   0.22050   0.47550   0.00000  Uiso   1.00
C1626  C     0.06890   0.21975   0.47150   0.00000  Uiso   1.00
C1627  C     0.07765   0.18650   0.49600   0.00000  Uiso   1.00
C1628  C     0.09270   0.19675   0.49875   0.00000  Uiso   1.00
C1629  C     0.10000   0.22150   0.46500   0.00000  Uiso   1.00
C1630  C     0.10200   0.17800   0.28300   0.00000  Uiso   1.00
N1631  N     0.11403   0.22000   0.47475   0.00000  Uiso   1.00
N1632  N     0.11520   0.19450   0.27550   0.00000  Uiso   1.00
H1633  H     0.04765   0.00065   0.45800   0.00000  Uiso   1.00
H1634  H     0.07243   0.00310   0.45175   0.00000  Uiso   1.00
H1635  H     0.09440   0.24150   0.43400   0.00000  Uiso   1.00
H1636  H     0.09815   0.15225   0.30675   0.00000  Uiso   1.00
C1637  C     0.17980   0.09550   0.47550   0.00000  Uiso   1.00
C1638  C     0.19390   0.09475   0.47150   0.00000  Uiso   1.00
C1639  C     0.20265   0.06150   0.49600   0.00000  Uiso   1.00
C1640  C     0.21770   0.07175   0.49875   0.00000  Uiso   1.00
C1641  C     0.22500   0.09650   0.46500   0.00000  Uiso   1.00
C1642  C     0.22700   0.05300   0.28300   0.00000  Uiso   1.00
N1643  N     0.23902   0.09500   0.47475   0.00000  Uiso   1.00
N1644  N     0.24020   0.06950   0.27550   0.00000  Uiso   1.00
H1645  H     0.17265   0.12565   0.45800   0.00000  Uiso   1.00
H1646  H     0.19742   0.12810   0.45175   0.00000  Uiso   1.00
H1647  H     0.21940   0.11650   0.43400   0.00000  Uiso   1.00
H1648  H     0.22315   0.02725   0.30675   0.00000  Uiso   1.00
C1649  C     0.05480   0.02950   0.35050   0.00000  Uiso   1.00
C1650  C     0.06890   0.03025   0.34650   0.00000  Uiso   1.00
C1651  C     0.07765   0.06350   0.37100   0.00000  Uiso   1.00
C1652  C     0.09270   0.05325   0.37375   0.00000  Uiso   1.00
C1653  C     0.10000   0.02850   0.34000   0.00000  Uiso   1.00
C1654  C     0.10200   0.07200   0.40800   0.00000  Uiso   1.00
N1655  N     0.11403   0.03000   0.34975   0.00000  Uiso   1.00
N1656  N     0.11520   0.05550   0.40050   0.00000  Uiso   1.00
H1657  H     0.04765   0.24935   0.33300   0.00000  Uiso   1.00
H1658  H     0.07243   0.24690   0.32675   0.00000  Uiso   1.00
H1659  H     0.09440   0.00850   0.30900   0.00000  Uiso   1.00
H1660  H     0.09815   0.09775   0.43175   0.00000  Uiso   1.00
C1661  C     0.17980   0.15450   0.35050   0.00000  Uiso   1.00
C1662  C     0.19390   0.15525   0.34650   0.00000  Uiso   1.00
C1663  C     0.20265   0.18850   0.37100   0.00000  Uiso   1.00
C1664  C     0.21770   0.17825   0.37375   0.00000  Uiso   1.00
C1665  C     0.22500   0.15350   0.34000   0.00000  Uiso   1.00
C1666  C     0.22700   0.19700   0.40800   0.00000  Uiso   1.00
N1667  N     0.23902   0.15500   0.34975   0.00000  Uiso   1.00
N1668  N     0.24020   0.18050   0.40050   0.00000  Uiso   1.00
H1669  H     0.17265   0.12435   0.33300   0.00000  Uiso   1.00
H1670  H     0.19742   0.12190   0.32675   0.00000  Uiso   1.00
H1671  H     0.21940   0.13350   0.30900   0.00000  Uiso   1.00
H1672  H     0.22315   0.22275   0.43175   0.00000  Uiso   1.00
C1673  C     0.19520   0.02950   0.27450   0.00000  Uiso   1.00
C1674  C     0.18110   0.03025   0.27850   0.00000  Uiso   1.00
C1675  C     0.17235   0.06350   0.25400   0.00000  Uiso   1.00
C1676  C     0.15730   0.05325   0.25125   0.00000  Uiso   1.00
C1677  C     0.15000   0.02850   0.28500   0.00000  Uiso   1.00
C1678  C     0.14800   0.07200   0.46700   0.00000  Uiso   1.00
N1679  N     0.13598   0.03000   0.27525   0.00000  Uiso   1.00
N1680  N     0.13480   0.05550   0.47450   0.00000  Uiso   1.00
H1681  H     0.20235   0.24935   0.29200   0.00000  Uiso   1.00
H1682  H     0.17758   0.24690   0.29825   0.00000  Uiso   1.00
H1683  H     0.15560   0.00850   0.31600   0.00000  Uiso   1.00
H1684  H     0.15185   0.09775   0.44325   0.00000  Uiso   1.00
C1685  C     0.07020   0.15450   0.27450   0.00000  Uiso   1.00
C1686  C     0.05610   0.15525   0.27850   0.00000  Uiso   1.00
C1687  C     0.04735   0.18850   0.25400   0.00000  Uiso   1.00
C1688  C     0.03230   0.17825   0.25125   0.00000  Uiso   1.00
C1689  C     0.02500   0.15350   0.28500   0.00000  Uiso   1.00
C1690  C     0.02300   0.19700   0.46700   0.00000  Uiso   1.00
N1691  N     0.01098   0.15500   0.27525   0.00000  Uiso   1.00
N1692  N     0.00980   0.18050   0.47450   0.00000  Uiso   1.00
H1693  H     0.07735   0.12435   0.29200   0.00000  Uiso   1.00
H1694  H     0.05258   0.12190   0.29825   0.00000  Uiso   1.00
H1695  H     0.03060   0.13350   0.31600   0.00000  Uiso   1.00
H1696  H     0.02685   0.22275   0.44325   0.00000  Uiso   1.00
Co1697 Co    0.12500   0.00860   0.43750   0.00000  Uiso   1.00
Co1698 Co    0.00000   0.13360   0.43750   0.00000  Uiso   1.00
Co1699 Co    0.12500   0.24140   0.31250   0.00000  Uiso   1.00
Co1700 Co    0.00000   0.11640   0.31250   0.00000  Uiso   1.00
C1701  C     0.44520   0.22050   0.39950   0.00000  Uiso   1.00
C1702  C     0.43110   0.21975   0.40350   0.00000  Uiso   1.00
C1703  C     0.42235   0.18650   0.37900   0.00000  Uiso   1.00
C1704  C     0.40730   0.19675   0.37625   0.00000  Uiso   1.00
C1705  C     0.40000   0.22150   0.41000   0.00000  Uiso   1.00
C1706  C     0.39800   0.17800   0.34200   0.00000  Uiso   1.00
N1707  N     0.38597   0.22000   0.40025   0.00000  Uiso   1.00
N1708  N     0.38480   0.19450   0.34950   0.00000  Uiso   1.00
H1709  H     0.45235   0.00065   0.41700   0.00000  Uiso   1.00
H1710  H     0.42757   0.00310   0.42325   0.00000  Uiso   1.00
H1711  H     0.40560   0.24150   0.44100   0.00000  Uiso   1.00
H1712  H     0.40185   0.15225   0.31825   0.00000  Uiso   1.00
C1713  C     0.32020   0.09550   0.39950   0.00000  Uiso   1.00
C1714  C     0.30610   0.09475   0.40350   0.00000  Uiso   1.00
C1715  C     0.29735   0.06150   0.37900   0.00000  Uiso   1.00
C1716  C     0.28230   0.07175   0.37625   0.00000  Uiso   1.00
C1717  C     0.27500   0.09650   0.41000   0.00000  Uiso   1.00
C1718  C     0.27300   0.05300   0.34200   0.00000  Uiso   1.00
N1719  N     0.26098   0.09500   0.40025   0.00000  Uiso   1.00
N1720  N     0.25980   0.06950   0.34950   0.00000  Uiso   1.00
H1721  H     0.32735   0.12565   0.41700   0.00000  Uiso   1.00
H1722  H     0.30258   0.12810   0.42325   0.00000  Uiso   1.00
H1723  H     0.28060   0.11650   0.44100   0.00000  Uiso   1.00
H1724  H     0.27685   0.02725   0.31825   0.00000  Uiso   1.00
C1725  C     0.30480   0.22050   0.47550   0.00000  Uiso   1.00
C1726  C     0.31890   0.21975   0.47150   0.00000  Uiso   1.00
C1727  C     0.32765   0.18650   0.49600   0.00000  Uiso   1.00
C1728  C     0.34270   0.19675   0.49875   0.00000  Uiso   1.00
C1729  C     0.35000   0.22150   0.46500   0.00000  Uiso   1.00
C1730  C     0.35200   0.17800   0.28300   0.00000  Uiso   1.00
N1731  N     0.36402   0.22000   0.47475   0.00000  Uiso   1.00
N1732  N     0.36520   0.19450   0.27550   0.00000  Uiso   1.00
H1733  H     0.29765   0.00065   0.45800   0.00000  Uiso   1.00
H1734  H     0.32243   0.00310   0.45175   0.00000  Uiso   1.00
H1735  H     0.34440   0.24150   0.43400   0.00000  Uiso   1.00
H1736  H     0.34815   0.15225   0.30675   0.00000  Uiso   1.00
C1737  C     0.42980   0.09550   0.47550   0.00000  Uiso   1.00
C1738  C     0.44390   0.09475   0.47150   0.00000  Uiso   1.00
C1739  C     0.45265   0.06150   0.49600   0.00000  Uiso   1.00
C1740  C     0.46770   0.07175   0.49875   0.00000  Uiso   1.00
C1741  C     0.47500   0.09650   0.46500   0.00000  Uiso   1.00
C1742  C     0.47700   0.05300   0.28300   0.00000  Uiso   1.00
N1743  N     0.48902   0.09500   0.47475   0.00000  Uiso   1.00
N1744  N     0.49020   0.06950   0.27550   0.00000  Uiso   1.00
H1745  H     0.42265   0.12565   0.45800   0.00000  Uiso   1.00
H1746  H     0.44742   0.12810   0.45175   0.00000  Uiso   1.00
H1747  H     0.46940   0.11650   0.43400   0.00000  Uiso   1.00
H1748  H     0.47315   0.02725   0.30675   0.00000  Uiso   1.00
C1749  C     0.30480   0.02950   0.35050   0.00000  Uiso   1.00
C1750  C     0.31890   0.03025   0.34650   0.00000  Uiso   1.00
C1751  C     0.32765   0.06350   0.37100   0.00000  Uiso   1.00
C1752  C     0.34270   0.05325   0.37375   0.00000  Uiso   1.00
C1753  C     0.35000   0.02850   0.34000   0.00000  Uiso   1.00
C1754  C     0.35200   0.07200   0.40800   0.00000  Uiso   1.00
N1755  N     0.36402   0.03000   0.34975   0.00000  Uiso   1.00
N1756  N     0.36520   0.05550   0.40050   0.00000  Uiso   1.00
H1757  H     0.29765   0.24935   0.33300   0.00000  Uiso   1.00
H1758  H     0.32243   0.24690   0.32675   0.00000  Uiso   1.00
H1759  H     0.34440   0.00850   0.30900   0.00000  Uiso   1.00
H1760  H     0.34815   0.09775   0.43175   0.00000  Uiso   1.00
C1761  C     0.42980   0.15450   0.35050   0.00000  Uiso   1.00
C1762  C     0.44390   0.15525   0.34650   0.00000  Uiso   1.00
C1763  C     0.45265   0.18850   0.37100   0.00000  Uiso   1.00
C1764  C     0.46770   0.17825   0.37375   0.00000  Uiso   1.00
C1765  C     0.47500   0.15350   0.34000   0.00000  Uiso   1.00
C1766  C     0.47700   0.19700   0.40800   0.00000  Uiso   1.00
N1767  N     0.48902   0.15500   0.34975   0.00000  Uiso   1.00
N1768  N     0.49020   0.18050   0.40050   0.00000  Uiso   1.00
H1769  H     0.42265   0.12435   0.33300   0.00000  Uiso   1.00
H1770  H     0.44742   0.12190   0.32675   0.00000  Uiso   1.00
H1771  H     0.46940   0.13350   0.30900   0.00000  Uiso   1.00
H1772  H     0.47315   0.22275   0.43175   0.00000  Uiso   1.00
C1773  C     0.44520   0.02950   0.27450   0.00000  Uiso   1.00
C1774  C     0.43110   0.03025   0.27850   0.00000  Uiso   1.00
C1775  C     0.42235   0.06350   0.25400   0.00000  Uiso   1.00
C1776  C     0.40730   0.05325   0.25125   0.00000  Uiso   1.00
C1777  C     0.40000   0.02850   0.28500   0.00000  Uiso   1.00
C1778  C     0.39800   0.07200   0.46700   0.00000  Uiso   1.00
N1779  N     0.38597   0.03000   0.27525   0.00000  Uiso   1.00
N1780  N     0.38480   0.05550   0.47450   0.00000  Uiso   1.00
H1781  H     0.45235   0.24935   0.29200   0.00000  Uiso   1.00
H1782  H     0.42757   0.24690   0.29825   0.00000  Uiso   1.00
H1783  H     0.40560   0.00850   0.31600   0.00000  Uiso   1.00
H1784  H     0.40185   0.09775   0.44325   0.00000  Uiso   1.00
C1785  C     0.32020   0.15450   0.27450   0.00000  Uiso   1.00
C1786  C     0.30610   0.15525   0.27850   0.00000  Uiso   1.00
C1787  C     0.29735   0.18850   0.25400   0.00000  Uiso   1.00
C1788  C     0.28230   0.17825   0.25125   0.00000  Uiso   1.00
C1789  C     0.27500   0.15350   0.28500   0.00000  Uiso   1.00
C1790  C     0.27300   0.19700   0.46700   0.00000  Uiso   1.00
N1791  N     0.26098   0.15500   0.27525   0.00000  Uiso   1.00
N1792  N     0.25980   0.18050   0.47450   0.00000  Uiso   1.00
H1793  H     0.32735   0.12435   0.29200   0.00000  Uiso   1.00
H1794  H     0.30258   0.12190   0.29825   0.00000  Uiso   1.00
H1795  H     0.28060   0.13350   0.31600   0.00000  Uiso   1.00
H1796  H     0.27685   0.22275   0.44325   0.00000  Uiso   1.00
Co1797 Co    0.37500   0.00860   0.43750   0.00000  Uiso   1.00
Co1798 Co    0.25000   0.13360   0.43750   0.00000  Uiso   1.00
Co1799 Co    0.37500   0.24140   0.31250   0.00000  Uiso   1.00
Co1800 Co    0.25000   0.11640   0.31250   0.00000  Uiso   1.00
C1801  C     0.69520   0.22050   0.39950   0.00000  Uiso   1.00
C1802  C     0.68110   0.21975   0.40350   0.00000  Uiso   1.00
C1803  C     0.67235   0.18650   0.37900   0.00000  Uiso   1.00
C1804  C     0.65730   0.19675   0.37625   0.00000  Uiso   1.00
C1805  C     0.65000   0.22150   0.41000   0.00000  Uiso   1.00
C1806  C     0.64800   0.17800   0.34200   0.00000  Uiso   1.00
N1807  N     0.63597   0.22000   0.40025   0.00000  Uiso   1.00
N1808  N     0.63480   0.19450   0.34950   0.00000  Uiso   1.00
H1809  H     0.70235   0.00065   0.41700   0.00000  Uiso   1.00
H1810  H     0.67757   0.00310   0.42325   0.00000  Uiso   1.00
H1811  H     0.65560   0.24150   0.44100   0.00000  Uiso   1.00
H1812  H     0.65185   0.15225   0.31825   0.00000  Uiso   1.00
C1813  C     0.57020   0.09550   0.39950   0.00000  Uiso   1.00
C1814  C     0.55610   0.09475   0.40350   0.00000  Uiso   1.00
C1815  C     0.54735   0.06150   0.37900   0.00000  Uiso   1.00
C1816  C     0.53230   0.07175   0.37625   0.00000  Uiso   1.00
C1817  C     0.52500   0.09650   0.41000   0.00000  Uiso   1.00
C1818  C     0.52300   0.05300   0.34200   0.00000  Uiso   1.00
N1819  N     0.51098   0.09500   0.40025   0.00000  Uiso   1.00
N1820  N     0.50980   0.06950   0.34950   0.00000  Uiso   1.00
H1821  H     0.57735   0.12565   0.41700   0.00000  Uiso   1.00
H1822  H     0.55258   0.12810   0.42325   0.00000  Uiso   1.00
H1823  H     0.53060   0.11650   0.44100   0.00000  Uiso   1.00
H1824  H     0.52685   0.02725   0.31825   0.00000  Uiso   1.00
C1825  C     0.55480   0.22050   0.47550   0.00000  Uiso   1.00
C1826  C     0.56890   0.21975   0.47150   0.00000  Uiso   1.00
C1827  C     0.57765   0.18650   0.49600   0.00000  Uiso   1.00
C1828  C     0.59270   0.19675   0.49875   0.00000  Uiso   1.00
C1829  C     0.60000   0.22150   0.46500   0.00000  Uiso   1.00
C1830  C     0.60200   0.17800   0.28300   0.00000  Uiso   1.00
N1831  N     0.61402   0.22000   0.47475   0.00000  Uiso   1.00
N1832  N     0.61520   0.19450   0.27550   0.00000  Uiso   1.00
H1833  H     0.54765   0.00065   0.45800   0.00000  Uiso   1.00
H1834  H     0.57243   0.00310   0.45175   0.00000  Uiso   1.00
H1835  H     0.59440   0.24150   0.43400   0.00000  Uiso   1.00
H1836  H     0.59815   0.15225   0.30675   0.00000  Uiso   1.00
C1837  C     0.67980   0.09550   0.47550   0.00000  Uiso   1.00
C1838  C     0.69390   0.09475   0.47150   0.00000  Uiso   1.00
C1839  C     0.70265   0.06150   0.49600   0.00000  Uiso   1.00
C1840  C     0.71770   0.07175   0.49875   0.00000  Uiso   1.00
C1841  C     0.72500   0.09650   0.46500   0.00000  Uiso   1.00
C1842  C     0.72700   0.05300   0.28300   0.00000  Uiso   1.00
N1843  N     0.73902   0.09500   0.47475   0.00000  Uiso   1.00
N1844  N     0.74020   0.06950   0.27550   0.00000  Uiso   1.00
H1845  H     0.67265   0.12565   0.45800   0.00000  Uiso   1.00
H1846  H     0.69742   0.12810   0.45175   0.00000  Uiso   1.00
H1847  H     0.71940   0.11650   0.43400   0.00000  Uiso   1.00
H1848  H     0.72315   0.02725   0.30675   0.00000  Uiso   1.00
C1849  C     0.55480   0.02950   0.35050   0.00000  Uiso   1.00
C1850  C     0.56890   0.03025   0.34650   0.00000  Uiso   1.00
C1851  C     0.57765   0.06350   0.37100   0.00000  Uiso   1.00
C1852  C     0.59270   0.05325   0.37375   0.00000  Uiso   1.00
C1853  C     0.60000   0.02850   0.34000   0.00000  Uiso   1.00
C1854  C     0.60200   0.07200   0.40800   0.00000  Uiso   1.00
N1855  N     0.61402   0.03000   0.34975   0.00000  Uiso   1.00
N1856  N     0.61520   0.05550   0.40050   0.00000  Uiso   1.00
H1857  H     0.54765   0.24935   0.33300   0.00000  Uiso   1.00
H1858  H     0.57243   0.24690   0.32675   0.00000  Uiso   1.00
H1859  H     0.59440   0.00850   0.30900   0.00000  Uiso   1.00
H1860  H     0.59815   0.09775   0.43175   0.00000  Uiso   1.00
C1861  C     0.67980   0.15450   0.35050   0.00000  Uiso   1.00
C1862  C     0.69390   0.15525   0.34650   0.00000  Uiso   1.00
C1863  C     0.70265   0.18850   0.37100   0.00000  Uiso   1.00
C1864  C     0.71770   0.17825   0.37375   0.00000  Uiso   1.00
C1865  C     0.72500   0.15350   0.34000   0.00000  Uiso   1.00
C1866  C     0.72700   0.19700   0.40800   0.00000  Uiso   1.00
N1867  N     0.73902   0.15500   0.34975   0.00000  Uiso   1.00
N1868  N     0.74020   0.18050   0.40050   0.00000  Uiso   1.00
H1869  H     0.67265   0.12435   0.33300   0.00000  Uiso   1.00
H1870  H     0.69742   0.12190   0.32675   0.00000  Uiso   1.00
H1871  H     0.71940   0.13350   0.30900   0.00000  Uiso   1.00
H1872  H     0.72315   0.22275   0.43175   0.00000  Uiso   1.00
C1873  C     0.69520   0.02950   0.27450   0.00000  Uiso   1.00
C1874  C     0.68110   0.03025   0.27850   0.00000  Uiso   1.00
C1875  C     0.67235   0.06350   0.25400   0.00000  Uiso   1.00
C1876  C     0.65730   0.05325   0.25125   0.00000  Uiso   1.00
C1877  C     0.65000   0.02850   0.28500   0.00000  Uiso   1.00
C1878  C     0.64800   0.07200   0.46700   0.00000  Uiso   1.00
N1879  N     0.63597   0.03000   0.27525   0.00000  Uiso   1.00
N1880  N     0.63480   0.05550   0.47450   0.00000  Uiso   1.00
H1881  H     0.70235   0.24935   0.29200   0.00000  Uiso   1.00
H1882  H     0.67757   0.24690   0.29825   0.00000  Uiso   1.00
H1883  H     0.65560   0.00850   0.31600   0.00000  Uiso   1.00
H1884  H     0.65185   0.09775   0.44325   0.00000  Uiso   1.00
C1885  C     0.57020   0.15450   0.27450   0.00000  Uiso   1.00
C1886  C     0.55610   0.15525   0.27850   0.00000  Uiso   1.00
C1887  C     0.54735   0.18850   0.25400   0.00000  Uiso   1.00
C1888  C     0.53230   0.17825   0.25125   0.00000  Uiso   1.00
C1889  C     0.52500   0.15350   0.28500   0.00000  Uiso   1.00
C1890  C     0.52300   0.19700   0.46700   0.00000  Uiso   1.00
N1891  N     0.51098   0.15500   0.27525   0.00000  Uiso   1.00
N1892  N     0.50980   0.18050   0.47450   0.00000  Uiso   1.00
H1893  H     0.57735   0.12435   0.29200   0.00000  Uiso   1.00
H1894  H     0.55258   0.12190   0.29825   0.00000  Uiso   1.00
H1895  H     0.53060   0.13350   0.31600   0.00000  Uiso   1.00
H1896  H     0.52685   0.22275   0.44325   0.00000  Uiso   1.00
Co1897 Co    0.62500   0.00860   0.43750   0.00000  Uiso   1.00
Co1898 Co    0.50000   0.13360   0.43750   0.00000  Uiso   1.00
Co1899 Co    0.62500   0.24140   0.31250   0.00000  Uiso   1.00
Co1900 Co    0.50000   0.11640   0.31250   0.00000  Uiso   1.00
C1901  C     0.94520   0.22050   0.39950   0.00000  Uiso   1.00
C1902  C     0.93110   0.21975   0.40350   0.00000  Uiso   1.00
C1903  C     0.92235   0.18650   0.37900   0.00000  Uiso   1.00
C1904  C     0.90730   0.19675   0.37625   0.00000  Uiso   1.00
C1905  C     0.90000   0.22150   0.41000   0.00000  Uiso   1.00
C1906  C     0.89800   0.17800   0.34200   0.00000  Uiso   1.00
N1907  N     0.88597   0.22000   0.40025   0.00000  Uiso   1.00
N1908  N     0.88480   0.19450   0.34950   0.00000  Uiso   1.00
H1909  H     0.95235   0.00065   0.41700   0.00000  Uiso   1.00
H1910  H     0.92757   0.00310   0.42325   0.00000  Uiso   1.00
H1911  H     0.90560   0.24150   0.44100   0.00000  Uiso   1.00
H1912  H     0.90185   0.15225   0.31825   0.00000  Uiso   1.00
C1913  C     0.82020   0.09550   0.39950   0.00000  Uiso   1.00
C1914  C     0.80610   0.09475   0.40350   0.00000  Uiso   1.00
C1915  C     0.79735   0.06150   0.37900   0.00000  Uiso   1.00
C1916  C     0.78230   0.07175   0.37625   0.00000  Uiso   1.00
C1917  C     0.77500   0.09650   0.41000   0.00000  Uiso   1.00
C1918  C     0.77300   0.05300   0.34200   0.00000  Uiso   1.00
N1919  N     0.76097   0.09500   0.40025   0.00000  Uiso   1.00
N1920  N     0.75980   0.06950   0.34950   0.00000  Uiso   1.00
H1921  H     0.82735   0.12565   0.41700   0.00000  Uiso   1.00
H1922  H     0.80257   0.12810   0.42325   0.00000  Uiso   1.00
H1923  H     0.78060   0.11650   0.44100   0.00000  Uiso   1.00
H1924  H     0.77685   0.02725   0.31825   0.00000  Uiso   1.00
C1925  C     0.80480   0.22050   0.47550   0.00000  Uiso   1.00
C1926  C     0.81890   0.21975   0.47150   0.00000  Uiso   1.00
C1927  C     0.82765   0.18650   0.49600   0.00000  Uiso   1.00
C1928  C     0.84270   0.19675   0.49875   0.00000  Uiso   1.00
C1929  C     0.85000   0.22150   0.46500   0.00000  Uiso   1.00
C1930  C     0.85200   0.17800   0.28300   0.00000  Uiso   1.00
N1931  N     0.86402   0.22000   0.47475   0.00000  Uiso   1.00
N1932  N     0.86520   0.19450   0.27550   0.00000  Uiso   1.00
H1933  H     0.79765   0.00065   0.45800   0.00000  Uiso   1.00
H1934  H     0.82242   0.00310   0.45175   0.00000  Uiso   1.00
H1935  H     0.84440   0.24150   0.43400   0.00000  Uiso   1.00
H1936  H     0.84815   0.15225   0.30675   0.00000  Uiso   1.00
C1937  C     0.92980   0.09550   0.47550   0.00000  Uiso   1.00
C1938  C     0.94390   0.09475   0.47150   0.00000  Uiso   1.00
C1939  C     0.95265   0.06150   0.49600   0.00000  Uiso   1.00
C1940  C     0.96770   0.07175   0.49875   0.00000  Uiso   1.00
C1941  C     0.97500   0.09650   0.46500   0.00000  Uiso   1.00
C1942  C     0.97700   0.05300   0.28300   0.00000  Uiso   1.00
N1943  N     0.98902   0.09500   0.47475   0.00000  Uiso   1.00
N1944  N     0.99020   0.06950   0.27550   0.00000  Uiso   1.00
H1945  H     0.92265   0.12565   0.45800   0.00000  Uiso   1.00
H1946  H     0.94742   0.12810   0.45175   0.00000  Uiso   1.00
H1947  H     0.96940   0.11650   0.43400   0.00000  Uiso   1.00
H1948  H     0.97315   0.02725   0.30675   0.00000  Uiso   1.00
C1949  C     0.80480   0.02950   0.35050   0.00000  Uiso   1.00
C1950  C     0.81890   0.03025   0.34650   0.00000  Uiso   1.00
C1951  C     0.82765   0.06350   0.37100   0.00000  Uiso   1.00
C1952  C     0.84270   0.05325   0.37375   0.00000  Uiso   1.00
C1953  C     0.85000   0.02850   0.34000   0.00000  Uiso   1.00
C1954  C     0.85200   0.07200   0.40800   0.00000  Uiso   1.00
N1955  N     0.86402   0.03000   0.34975   0.00000  Uiso   1.00
N1956  N     0.86520   0.05550   0.40050   0.00000  Uiso   1.00
H1957  H     0.79765   0.24935   0.33300   0.00000  Uiso   1.00
H1958  H     0.82242   0.24690   0.32675   0.00000  Uiso   1.00
H1959  H     0.84440   0.00850   0.30900   0.00000  Uiso   1.00
H1960  H     0.84815   0.09775   0.43175   0.00000  Uiso   1.00
C1961  C     0.92980   0.15450   0.35050   0.00000  Uiso   1.00
C1962  C     0.94390   0.15525   0.34650   0.00000  Uiso   1.00
C1963  C     0.95265   0.18850   0.37100   0.00000  Uiso   1.00
C1964  C     0.96770   0.17825   0.37375   0.00000  Uiso   1.00
C1965  C     0.97500   0.15350   0.34000   0.00000  Uiso   1.00
C1966  C     0.97700   0.19700   0.40800   0.00000  Uiso   1.00
N1967  N     0.98902   0.15500   0.34975   0.00000  Uiso   1.00
N1968  N     0.99020   0.18050   0.40050   0.00000  Uiso   1.00
H1969  H     0.92265   0.12435   0.33300   0.00000  Uiso   1.00
H1970  H     0.94742   0.12190   0.32675   0.00000  Uiso   1.00
H1971  H     0.96940   0.13350   0.30900   0.00000  Uiso   1.00
H1972  H     0.97315   0.22275   0.43175   0.00000  Uiso   1.00
C1973  C     0.94520   0.02950   0.27450   0.00000  Uiso   1.00
C1974  C     0.93110   0.03025   0.27850   0.00000  Uiso   1.00
C1975  C     0.92235   0.06350   0.25400   0.00000  Uiso   1.00
C1976  C     0.90730   0.05325   0.25125   0.00000  Uiso   1.00
C1977  C     0.90000   0.02850   0.28500   0.00000  Uiso   1.00
C1978  C     0.89800   0.07200   0.46700   0.00000  Uiso   1.00
N1979  N     0.88597   0.03000   0.27525   0.00000  Uiso   1.00
N1980  N     0.88480   0.05550   0.47450   0.00000  Uiso   1.00
H1981  H     0.95235   0.24935   0.29200   0.00000  Uiso   1.00
H1982  H     0.92757   0.24690   0.29825   0.00000  Uiso   1.00
H1983  H     0.90560   0.00850   0.31600   0.00000  Uiso   1.00
H1984  H     0.90185   0.09775   0.44325   0.00000  Uiso   1.00
C1985  C     0.82020   0.15450   0.27450   0.00000  Uiso   1.00
C1986  C     0.80610   0.15525   0.27850   0.00000  Uiso   1.00
C1987  C     0.79735   0.18850   0.25400   0.00000  Uiso   1.00
C1988  C     0.78230   0.17825   0.25125   0.00000  Uiso   1.00
C1989  C     0.77500   0.15350   0.28500   0.00000  Uiso   1.00
C1990  C     0.77300   0.19700   0.46700   0.00000  Uiso   1.00
N1991  N     0.76097   0.15500   0.27525   0.00000  Uiso   1.00
N1992  N     0.75980   0.18050   0.47450   0.00000  Uiso   1.00
H1993  H     0.82735   0.12435   0.29200   0.00000  Uiso   1.00
H1994  H     0.80257   0.12190   0.29825   0.00000  Uiso   1.00
H1995  H     0.78060   0.13350   0.31600   0.00000  Uiso   1.00
H1996  H     0.77685   0.22275   0.44325   0.00000  Uiso   1.00
Co1997 Co    0.87500   0.00860   0.43750   0.00000  Uiso   1.00
Co1998 Co    0.75000   0.13360   0.43750   0.00000  Uiso   1.00
Co1999 Co    0.87500   0.24140   0.31250   0.00000  Uiso   1.00
Co2000 Co    0.75000   0.11640   0.31250   0.00000  Uiso   1.00
C2001  C     0.19520   0.47050   0.39950   0.00000  Uiso   1.00
C2002  C     0.18110   0.46975   0.40350   0.00000  Uiso   1.00
C2003  C     0.17235   0.43650   0.37900   0.00000  Uiso   1.00
C2004  C     0.15730   0.44675   0.37625   0.00000  Uiso   1.00
C2005  C     0.15000   0.47150   0.41000   0.00000  Uiso   1.00
C2006  C     0.14800   0.42800   0.34200   0.00000  Uiso   1.00
N2007  N     0.13598   0.47000   0.40025   0.00000  Uiso   1.00
N2008  N     0.13480   0.44450   0.34950   0.00000  Uiso   1.00
H2009  H     0.20235   0.25065   0.41700   0.00000  Uiso   1.00
H2010  H     0.17758   0.25310   0.42325   0.00000  Uiso   1.00
H2011  H     0.15560   0.49150   0.44100   0.00000  Uiso   1.00
H2012  H     0.15185   0.40225   0.31825   0.00000  Uiso   1.00
C2013  C     0.07020   0.34550   0.39950   0.00000  Uiso   1.00
C2014  C     0.05610   0.34475   0.40350   0.00000  Uiso   1.00
C2015  C     0.04735   0.31150   0.37900   0.00000  Uiso   1.00
C2016  C     0.03230   0.32175   0.37625   0.00000  Uiso   1.00
C2017  C     0.02500   0.34650   0.41000   0.00000  Uiso   1.00
C2018  C     0.02300   0.30300   0.34200   0.00000  Uiso   1.00
N2019  N     0.01098   0.34500   0.40025   0.00000  Uiso   1.00
N2020  N     0.00980   0.31950   0.34950   0.00000  Uiso   1.00
H2021  H     0.07735   0.37565   0.41700   0.00000  Uiso   1.00
H2022  H     0.05258   0.37810   0.42325   0.00000  Uiso   1.00
H2023  H     0.03060   0.36650   0.44100   0.00000  Uiso   1.00
H2024  H     0.02685   0.27725   0.31825   0.00000  Uiso   1.00
C2025  C     0.05480   0.47050   0.47550   0.00000  Uiso   1.00
C2026  C     0.06890   0.46975   0.47150   0.00000  Uiso   1.00
C2027  C     0.07765   0.43650   0.49600   0.00000  Uiso   1.00
C2028  C     0.09270   0.44675   0.49875   0.00000  Uiso   1.00
C2029  C     0.10000   0.47150   0.46500   0.00000  Uiso   1.00
C2030  C     0.10200   0.42800   0.28300   0.00000  Uiso   1.00
N2031  N     0.11403   0.47000   0.47475   0.00000  Uiso   1.00
N2032  N     0.11520   0.44450   0.27550   0.00000  Uiso   1.00
H2033  H     0.04765   0.25065   0.45800   0.00000  Uiso   1.00
H2034  H     0.07243   0.25310   0.45175   0.00000  Uiso   1.00
H2035  H     0.09440   0.49150   0.43400   0.00000  Uiso   1.00
H2036  H     0.09815   0.40225   0.30675   0.00000  Uiso   1.00
C2037  C     0.17980   0.34550   0.47550   0.00000  Uiso   1.00
C2038  C     0.19390   0.34475   0.47150   0.00000  Uiso   1.00
C2039  C     0.20265   0.31150   0.49600   0.00000  Uiso   1.00
C2040  C     0.21770   0.32175   0.49875   0.00000  Uiso   1.00
C2041  C     0.22500   0.34650   0.46500   0.00000  Uiso   1.00
C2042  C     0.22700   0.30300   0.28300   0.00000  Uiso   1.00
N2043  N     0.23902   0.34500   0.47475   0.00000  Uiso   1.00
N2044  N     0.24020   0.31950   0.27550   0.00000  Uiso   1.00
H2045  H     0.17265   0.37565   0.45800   0.00000  Uiso   1.00
H2046  H     0.19742   0.37810   0.45175   0.00000  Uiso   1.00
H2047  H     0.21940   0.36650   0.43400   0.00000  Uiso   1.00
H2048  H     0.22315   0.27725   0.30675   0.00000  Uiso   1.00
C2049  C     0.05480   0.27950   0.35050   0.00000  Uiso   1.00
C2050  C     0.06890   0.28025   0.34650   0.00000  Uiso   1.00
C2051  C     0.07765   0.31350   0.37100   0.00000  Uiso   1.00
C2052  C     0.09270   0.30325   0.37375   0.00000  Uiso   1.00
C2053  C     0.10000   0.27850   0.34000   0.00000  Uiso   1.00
C2054  C     0.10200   0.32200   0.40800   0.00000  Uiso   1.00
N2055  N     0.11403   0.28000   0.34975   0.00000  Uiso   1.00
N2056  N     0.11520   0.30550   0.40050   0.00000  Uiso   1.00
H2057  H     0.04765   0.49935   0.33300   0.00000  Uiso   1.00
H2058  H     0.07243   0.49690   0.32675   0.00000  Uiso   1.00
H2059  H     0.09440   0.25850   0.30900   0.00000  Uiso   1.00
H2060  H     0.09815   0.34775   0.43175   0.00000  Uiso   1.00
C2061  C     0.17980   0.40450   0.35050   0.00000  Uiso   1.00
C2062  C     0.19390   0.40525   0.34650   0.00000  Uiso   1.00
C2063  C     0.20265   0.43850   0.37100   0.00000  Uiso   1.00
C2064  C     0.21770   0.42825   0.37375   0.00000  Uiso   1.00
C2065  C     0.22500   0.40350   0.34000   0.00000  Uiso   1.00
C2066  C     0.22700   0.44700   0.40800   0.00000  Uiso   1.00
N2067  N     0.23902   0.40500   0.34975   0.00000  Uiso   1.00
N2068  N     0.24020   0.43050   0.40050   0.00000  Uiso   1.00
H2069  H     0.17265   0.37435   0.33300   0.00000  Uiso   1.00
H2070  H     0.19742   0.37190   0.32675   0.00000  Uiso   1.00
H2071  H     0.21940   0.38350   0.30900   0.00000  Uiso   1.00
H2072  H     0.22315   0.47275   0.43175   0.00000  Uiso   1.00
C2073  C     0.19520   0.27950   0.27450   0.00000  Uiso   1.00
C2074  C     0.18110   0.28025   0.27850   0.00000  Uiso   1.00
C2075  C     0.17235   0.31350   0.25400   0.00000  Uiso   1.00
C2076  C     0.15730   0.30325   0.25125   0.00000  Uiso   1.00
C2077  C     0.15000   0.27850   0.28500   0.00000  Uiso   1.00
C2078  C     0.14800   0.32200   0.46700   0.00000  Uiso   1.00
N2079  N     0.13598   0.28000   0.27525   0.00000  Uiso   1.00
N2080  N     0.13480   0.30550   0.47450   0.00000  Uiso   1.00
H2081  H     0.20235   0.49935   0.29200   0.00000  Uiso   1.00
H2082  H     0.17758   0.49690   0.29825   0.00000  Uiso   1.00
H2083  H     0.15560   0.25850   0.31600   0.00000  Uiso   1.00
H2084  H     0.15185   0.34775   0.44325   0.00000  Uiso   1.00
C2085  C     0.07020   0.40450   0.27450   0.00000  Uiso   1.00
C2086  C     0.05610   0.40525   0.27850   0.00000  Uiso   1.00
C2087  C     0.04735   0.43850   0.25400   0.00000  Uiso   1.00
C2088  C     0.03230   0.42825   0.25125   0.00000  Uiso   1.00
C2089  C     0.02500   0.40350   0.28500   0.00000  Uiso   1.00
C2090  C     0.02300   0.44700   0.46700   0.00000  Uiso   1.00
N2091  N     0.01098   0.40500   0.27525   0.00000  Uiso   1.00
N2092  N     0.00980   0.43050   0.47450   0.00000  Uiso   1.00
H2093  H     0.07735   0.37435   0.29200   0.00000  Uiso   1.00
H2094  H     0.05258   0.37190   0.29825   0.00000  Uiso   1.00
H2095  H     0.03060   0.38350   0.31600   0.00000  Uiso   1.00
H2096  H     0.02685   0.47275   0.44325   0.00000  Uiso   1.00
Co2097 Co    0.12500   0.25860   0.43750   0.00000  Uiso   1.00
Co2098 Co    0.00000   0.38360   0.43750   0.00000  Uiso   1.00
Co2099 Co    0.12500   0.49140   0.31250   0.00000  Uiso   1.00
Co2100 Co    0.00000   0.36640   0.31250   0.00000  Uiso   1.00
C2101  C     0.44520   0.47050   0.39950   0.00000  Uiso   1.00
C2102  C     0.43110   0.46975   0.40350   0.00000  Uiso   1.00
C2103  C     0.42235   0.43650   0.37900   0.00000  Uiso   1.00
C2104  C     0.40730   0.44675   0.37625   0.00000  Uiso   1.00
C2105  C     0.40000   0.47150   0.41000   0.00000  Uiso   1.00
C2106  C     0.39800   0.42800   0.34200   0.00000  Uiso   1.00
N2107  N     0.38597   0.47000   0.40025   0.00000  Uiso   1.00
N2108  N     0.38480   0.44450   0.34950   0.00000  Uiso   1.00
H2109  H     0.45235   0.25065   0.41700   0.00000  Uiso   1.00
H2110  H     0.42757   0.25310   0.42325   0.00000  Uiso   1.00
H2111  H     0.40560   0.49150   0.44100   0.00000  Uiso   1.00
H2112  H     0.40185   0.40225   0.31825   0.00000  Uiso   1.00
C2113  C     0.32020   0.34550   0.39950   0.00000  Uiso   1.00
C2114  C     0.30610   0.34475   0.40350   0.00000  Uiso   1.00
C2115  C     0.29735   0.31150   0.37900   0.00000  Uiso   1.00
C2116  C     0.28230   0.32175   0.37625   0.00000  Uiso   1.00
C2117  C     0.27500   0.34650   0.41000   0.00000  Uiso   1.00
C2118  C     0.27300   0.30300   0.34200   0.00000  Uiso   1.00
N2119  N     0.26098   0.34500   0.40025   0.00000  Uiso   1.00
N2120  N     0.25980   0.31950   0.34950   0.00000  Uiso   1.00
H2121  H     0.32735   0.37565   0.41700   0.00000  Uiso   1.00
H2122  H     0.30258   0.37810   0.42325   0.00000  Uiso   1.00
H2123  H     0.28060   0.36650   0.44100   0.00000  Uiso   1.00
H2124  H     0.27685   0.27725   0.31825   0.00000  Uiso   1.00
C2125  C     0.30480   0.47050   0.47550   0.00000  Uiso   1.00
C2126  C     0.31890   0.46975   0.47150   0.00000  Uiso   1.00
C2127  C     0.32765   0.43650   0.49600   0.00000  Uiso   1.00
C2128  C     0.34270   0.44675   0.49875   0.00000  Uiso   1.00
C2129  C     0.35000   0.47150   0.46500   0.00000  Uiso   1.00
C2130  C     0.35200   0.42800   0.28300   0.00000  Uiso   1.00
N2131  N     0.36402   0.47000   0.47475   0.00000  Uiso   1.00
N2132  N     0.36520   0.44450   0.27550   0.00000  Uiso   1.00
H2133  H     0.29765   0.25065   0.45800   0.00000  Uiso   1.00
H2134  H     0.32243   0.25310   0.45175   0.00000  Uiso   1.00
H2135  H     0.34440   0.49150   0.43400   0.00000  Uiso   1.00
H2136  H     0.34815   0.40225   0.30675   0.00000  Uiso   1.00
C2137  C     0.42980   0.34550   0.47550   0.00000  Uiso   1.00
C2138  C     0.44390   0.34475   0.47150   0.00000  Uiso   1.00
C2139  C     0.45265   0.31150   0.49600   0.00000  Uiso   1.00
C2140  C     0.46770   0.32175   0.49875   0.00000  Uiso   1.00
C2141  C     0.47500   0.34650   0.46500   0.00000  Uiso   1.00
C2142  C     0.47700   0.30300   0.28300   0.00000  Uiso   1.00
N2143  N     0.48902   0.34500   0.47475   0.00000  Uiso   1.00
N2144  N     0.49020   0.31950   0.27550   0.00000  Uiso   1.00
H2145  H     0.42265   0.37565   0.45800   0.00000  Uiso   1.00
H2146  H     0.44742   0.37810   0.45175   0.00000  Uiso   1.00
H2147  H     0.46940   0.36650   0.43400   0.00000  Uiso   1.00
H2148  H     0.47315   0.27725   0.30675   0.00000  Uiso   1.00
C2149  C     0.30480   0.27950   0.35050   0.00000  Uiso   1.00
C2150  C     0.31890   0.28025   0.34650   0.00000  Uiso   1.00
C2151  C     0.32765   0.31350   0.37100   0.00000  Uiso   1.00
C2152  C     0.34270   0.30325   0.37375   0.00000  Uiso   1.00
C2153  C     0.35000   0.27850   0.34000   0.00000  Uiso   1.00
C2154  C     0.35200   0.32200   0.40800   0.00000  Uiso   1.00
N2155  N     0.36402   0.28000   0.34975   0.00000  Uiso   1.00
N2156  N     0.36520   0.30550   0.40050   0.00000  Uiso   1.00
H2157  H     0.29765   0.49935   0.33300   0.00000  Uiso   1.00
H2158  H     0.32243   0.49690   0.32675   0.00000  Uiso   1.00
H2159  H     0.34440   0.25850   0.30900   0.00000  Uiso   1.00
H2160  H     0.34815   0.34775   0.43175   0.00000  Uiso   1.00
C2161  C     0.42980   0.40450   0.35050   0.00000  Uiso   1.00
C2162  C     0.44390   0.40525   0.34650   0.00000  Uiso   1.00
C2163  C     0.45265   0.43850   0.37100   0.00000  Uiso   1.00
C2164  C     0.46770   0.42825   0.37375   0.00000  Uiso   1.00
C2165  C     0.47500   0.40350   0.34000   0.00000  Uiso   1.00
C2166  C     0.47700   0.44700   0.40800   0.00000  Uiso   1.00
N2167  N     0.48902   0.40500   0.34975   0.00000  Uiso   1.00
N2168  N     0.49020   0.43050   0.40050   0.00000  Uiso   1.00
H2169  H     0.42265   0.37435   0.33300   0.00000  Uiso   1.00
H2170  H     0.44742   0.37190   0.32675   0.00000  Uiso   1.00
H2171  H     0.46940   0.38350   0.30900   0.00000  Uiso   1.00
H2172  H     0.47315   0.47275   0.43175   0.00000  Uiso   1.00
C2173  C     0.44520   0.27950   0.27450   0.00000  Uiso   1.00
C2174  C     0.43110   0.28025   0.27850   0.00000  Uiso   1.00
C2175  C     0.42235   0.31350   0.25400   0.00000  Uiso   1.00
C2176  C     0.40730   0.30325   0.25125   0.00000  Uiso   1.00
C2177  C     0.40000   0.27850   0.28500   0.00000  Uiso   1.00
C2178  C     0.39800   0.32200   0.46700   0.00000  Uiso   1.00
N2179  N     0.38597   0.28000   0.27525   0.00000  Uiso   1.00
N2180  N     0.38480   0.30550   0.47450   0.00000  Uiso   1.00
H2181  H     0.45235   0.49935   0.29200   0.00000  Uiso   1.00
H2182  H     0.42757   0.49690   0.29825   0.00000  Uiso   1.00
H2183  H     0.40560   0.25850   0.31600   0.00000  Uiso   1.00
H2184  H     0.40185   0.34775   0.44325   0.00000  Uiso   1.00
C2185  C     0.32020   0.40450   0.27450   0.00000  Uiso   1.00
C2186  C     0.30610   0.40525   0.27850   0.00000  Uiso   1.00
C2187  C     0.29735   0.43850   0.25400   0.00000  Uiso   1.00
C2188  C     0.28230   0.42825   0.25125   0.00000  Uiso   1.00
C2189  C     0.27500   0.40350   0.28500   0.00000  Uiso   1.00
C2190  C     0.27300   0.44700   0.46700   0.00000  Uiso   1.00
N2191  N     0.26098   0.40500   0.27525   0.00000  Uiso   1.00
N2192  N     0.25980   0.43050   0.47450   0.00000  Uiso   1.00
H2193  H     0.32735   0.37435   0.29200   0.00000  Uiso   1.00
H2194  H     0.30258   0.37190   0.29825   0.00000  Uiso   1.00
H2195  H     0.28060   0.38350   0.31600   0.00000  Uiso   1.00
H2196  H     0.27685   0.47275   0.44325   0.00000  Uiso   1.00
Co2197 Co    0.37500   0.25860   0.43750   0.00000  Uiso   1.00
Co2198 Co    0.25000   0.38360   0.43750   0.00000  Uiso   1.00
Co2199 Co    0.37500   0.49140   0.31250   0.00000  Uiso   1.00
Co2200 Co    0.25000   0.36640   0.31250   0.00000  Uiso   1.00
C2201  C     0.69520   0.47050   0.39950   0.00000  Uiso   1.00
C2202  C     0.68110   0.46975   0.40350   0.00000  Uiso   1.00
C2203  C     0.67235   0.43650   0.37900   0.00000  Uiso   1.00
C2204  C     0.65730   0.44675   0.37625   0.00000  Uiso   1.00
C2205  C     0.65000   0.47150   0.41000   0.00000  Uiso   1.00
C2206  C     0.64800   0.42800   0.34200   0.00000  Uiso   1.00
N2207  N     0.63597   0.47000   0.40025   0.00000  Uiso   1.00
N2208  N     0.63480   0.44450   0.34950   0.00000  Uiso   1.00
H2209  H     0.70235   0.25065   0.41700   0.00000  Uiso   1.00
H2210  H     0.67757   0.25310   0.42325   0.00000  Uiso   1.00
H2211  H     0.65560   0.49150   0.44100   0.00000  Uiso   1.00
H2212  H     0.65185   0.40225   0.31825   0.00000  Uiso   1.00
C2213  C     0.57020   0.34550   0.39950   0.00000  Uiso   1.00
C2214  C     0.55610   0.34475   0.40350   0.00000  Uiso   1.00
C2215  C     0.54735   0.31150   0.37900   0.00000  Uiso   1.00
C2216  C     0.53230   0.32175   0.37625   0.00000  Uiso   1.00
C2217  C     0.52500   0.34650   0.41000   0.00000  Uiso   1.00
C2218  C     0.52300   0.30300   0.34200   0.00000  Uiso   1.00
N2219  N     0.51098   0.34500   0.40025   0.00000  Uiso   1.00
N2220  N     0.50980   0.31950   0.34950   0.00000  Uiso   1.00
H2221  H     0.57735   0.37565   0.41700   0.00000  Uiso   1.00
H2222  H     0.55258   0.37810   0.42325   0.00000  Uiso   1.00
H2223  H     0.53060   0.36650   0.44100   0.00000  Uiso   1.00
H2224  H     0.52685   0.27725   0.31825   0.00000  Uiso   1.00
C2225  C     0.55480   0.47050   0.47550   0.00000  Uiso   1.00
C2226  C     0.56890   0.46975   0.47150   0.00000  Uiso   1.00
C2227  C     0.57765   0.43650   0.49600   0.00000  Uiso   1.00
C2228  C     0.59270   0.44675   0.49875   0.00000  Uiso   1.00
C2229  C     0.60000   0.47150   0.46500   0.00000  Uiso   1.00
C2230  C     0.60200   0.42800   0.28300   0.00000  Uiso   1.00
N2231  N     0.61402   0.47000   0.47475   0.00000  Uiso   1.00
N2232  N     0.61520   0.44450   0.27550   0.00000  Uiso   1.00
H2233  H     0.54765   0.25065   0.45800   0.00000  Uiso   1.00
H2234  H     0.57243   0.25310   0.45175   0.00000  Uiso   1.00
H2235  H     0.59440   0.49150   0.43400   0.00000  Uiso   1.00
H2236  H     0.59815   0.40225   0.30675   0.00000  Uiso   1.00
C2237  C     0.67980   0.34550   0.47550   0.00000  Uiso   1.00
C2238  C     0.69390   0.34475   0.47150   0.00000  Uiso   1.00
C2239  C     0.70265   0.31150   0.49600   0.00000  Uiso   1.00
C2240  C     0.71770   0.32175   0.49875   0.00000  Uiso   1.00
C2241  C     0.72500   0.34650   0.46500   0.00000  Uiso   1.00
C2242  C     0.72700   0.30300   0.28300   0.00000  Uiso   1.00
N2243  N     0.73902   0.34500   0.47475   0.00000  Uiso   1.00
N2244  N     0.74020   0.31950   0.27550   0.00000  Uiso   1.00
H2245  H     0.67265   0.37565   0.45800   0.00000  Uiso   1.00
H2246  H     0.69742   0.37810   0.45175   0.00000  Uiso   1.00
H2247  H     0.71940   0.36650   0.43400   0.00000  Uiso   1.00
H2248  H     0.72315   0.27725   0.30675   0.00000  Uiso   1.00
C2249  C     0.55480   0.27950   0.35050   0.00000  Uiso   1.00
C2250  C     0.56890   0.28025   0.34650   0.00000  Uiso   1.00
C2251  C     0.57765   0.31350   0.37100   0.00000  Uiso   1.00
C2252  C     0.59270   0.30325   0.37375   0.00000  Uiso   1.00
C2253  C     0.60000   0.27850   0.34000   0.00000  Uiso   1.00
C2254  C     0.60200   0.32200   0.40800   0.00000  Uiso   1.00
N2255  N     0.61402   0.28000   0.34975   0.00000  Uiso   1.00
N2256  N     0.61520   0.30550   0.40050   0.00000  Uiso   1.00
H2257  H     0.54765   0.49935   0.33300   0.00000  Uiso   1.00
H2258  H     0.57243   0.49690   0.32675   0.00000  Uiso   1.00
H2259  H     0.59440   0.25850   0.30900   0.00000  Uiso   1.00
H2260  H     0.59815   0.34775   0.43175   0.00000  Uiso   1.00
C2261  C     0.67980   0.40450   0.35050   0.00000  Uiso   1.00
C2262  C     0.69390   0.40525   0.34650   0.00000  Uiso   1.00
C2263  C     0.70265   0.43850   0.37100   0.00000  Uiso   1.00
C2264  C     0.71770   0.42825   0.37375   0.00000  Uiso   1.00
C2265  C     0.72500   0.40350   0.34000   0.00000  Uiso   1.00
C2266  C     0.72700   0.44700   0.40800   0.00000  Uiso   1.00
N2267  N     0.73902   0.40500   0.34975   0.00000  Uiso   1.00
N2268  N     0.74020   0.43050   0.40050   0.00000  Uiso   1.00
H2269  H     0.67265   0.37435   0.33300   0.00000  Uiso   1.00
H2270  H     0.69742   0.37190   0.32675   0.00000  Uiso   1.00
H2271  H     0.71940   0.38350   0.30900   0.00000  Uiso   1.00
H2272  H     0.72315   0.47275   0.43175   0.00000  Uiso   1.00
C2273  C     0.69520   0.27950   0.27450   0.00000  Uiso   1.00
C2274  C     0.68110   0.28025   0.27850   0.00000  Uiso   1.00
C2275  C     0.67235   0.31350   0.25400   0.00000  Uiso   1.00
C2276  C     0.65730   0.30325   0.25125   0.00000  Uiso   1.00
C2277  C     0.65000   0.27850   0.28500   0.00000  Uiso   1.00
C2278  C     0.64800   0.32200   0.46700   0.00000  Uiso   1.00
N2279  N     0.63597   0.28000   0.27525   0.00000  Uiso   1.00
N2280  N     0.63480   0.30550   0.47450   0.00000  Uiso   1.00
H2281  H     0.70235   0.49935   0.29200   0.00000  Uiso   1.00
H2282  H     0.67757   0.49690   0.29825   0.00000  Uiso   1.00
H2283  H     0.65560   0.25850   0.31600   0.00000  Uiso   1.00
H2284  H     0.65185   0.34775   0.44325   0.00000  Uiso   1.00
C2285  C     0.57020   0.40450   0.27450   0.00000  Uiso   1.00
C2286  C     0.55610   0.40525   0.27850   0.00000  Uiso   1.00
C2287  C     0.54735   0.43850   0.25400   0.00000  Uiso   1.00
C2288  C     0.53230   0.42825   0.25125   0.00000  Uiso   1.00
C2289  C     0.52500   0.40350   0.28500   0.00000  Uiso   1.00
C2290  C     0.52300   0.44700   0.46700   0.00000  Uiso   1.00
N2291  N     0.51098   0.40500   0.27525   0.00000  Uiso   1.00
N2292  N     0.50980   0.43050   0.47450   0.00000  Uiso   1.00
H2293  H     0.57735   0.37435   0.29200   0.00000  Uiso   1.00
H2294  H     0.55258   0.37190   0.29825   0.00000  Uiso   1.00
H2295  H     0.53060   0.38350   0.31600   0.00000  Uiso   1.00
H2296  H     0.52685   0.47275   0.44325   0.00000  Uiso   1.00
Co2297 Co    0.62500   0.25860   0.43750   0.00000  Uiso   1.00
Co2298 Co    0.50000   0.38360   0.43750   0.00000  Uiso   1.00
Co2299 Co    0.62500   0.49140   0.31250   0.00000  Uiso   1.00
Co2300 Co    0.50000   0.36640   0.31250   0.00000  Uiso   1.00
C2301  C     0.94520   0.47050   0.39950   0.00000  Uiso   1.00
C2302  C     0.93110   0.46975   0.40350   0.00000  Uiso   1.00
C2303  C     0.92235   0.43650   0.37900   0.00000  Uiso   1.00
C2304  C     0.90730   0.44675   0.37625   0.00000  Uiso   1.00
C2305  C     0.90000   0.47150   0.41000   0.00000  Uiso   1.00
C2306  C     0.89800   0.42800   0.34200   0.00000  Uiso   1.00
N2307  N     0.88597   0.47000   0.40025   0.00000  Uiso   1.00
N2308  N     0.88480   0.44450   0.34950   0.00000  Uiso   1.00
H2309  H     0.95235   0.25065   0.41700   0.00000  Uiso   1.00
H2310  H     0.92757   0.25310   0.42325   0.00000  Uiso   1.00
H2311  H     0.90560   0.49150   0.44100   0.00000  Uiso   1.00
H2312  H     0.90185   0.40225   0.31825   0.00000  Uiso   1.00
C2313  C     0.82020   0.34550   0.39950   0.00000  Uiso   1.00
C2314  C     0.80610   0.34475   0.40350   0.00000  Uiso   1.00
C2315  C     0.79735   0.31150   0.37900   0.00000  Uiso   1.00
C2316  C     0.78230   0.32175   0.37625   0.00000  Uiso   1.00
C2317  C     0.77500   0.34650   0.41000   0.00000  Uiso   1.00
C2318  C     0.77300   0.30300   0.34200   0.00000  Uiso   1.00
N2319  N     0.76097   0.34500   0.40025   0.00000  Uiso   1.00
N2320  N     0.75980   0.31950   0.34950   0.00000  Uiso   1.00
H2321  H     0.82735   0.37565   0.41700   0.00000  Uiso   1.00
H2322  H     0.80257   0.37810   0.42325   0.00000  Uiso   1.00
H2323  H     0.78060   0.36650   0.44100   0.00000  Uiso   1.00
H2324  H     0.77685   0.27725   0.31825   0.00000  Uiso   1.00
C2325  C     0.80480   0.47050   0.47550   0.00000  Uiso   1.00
C2326  C     0.81890   0.46975   0.47150   0.00000  Uiso   1.00
C2327  C     0.82765   0.43650   0.49600   0.00000  Uiso   1.00
C2328  C     0.84270   0.44675   0.49875   0.00000  Uiso   1.00
C2329  C     0.85000   0.47150   0.46500   0.00000  Uiso   1.00
C2330  C     0.85200   0.42800   0.28300   0.00000  Uiso   1.00
N2331  N     0.86402   0.47000   0.47475   0.00000  Uiso   1.00
N2332  N     0.86520   0.44450   0.27550   0.00000  Uiso   1.00
H2333  H     0.79765   0.25065   0.45800   0.00000  Uiso   1.00
H2334  H     0.82242   0.25310   0.45175   0.00000  Uiso   1.00
H2335  H     0.84440   0.49150   0.43400   0.00000  Uiso   1.00
H2336  H     0.84815   0.40225   0.30675   0.00000  Uiso   1.00
C2337  C     0.92980   0.34550   0.47550   0.00000  Uiso   1.00
C2338  C     0.94390   0.34475   0.47150   0.00000  Uiso   1.00
C2339  C     0.95265   0.31150   0.49600   0.00000  Uiso   1.00
C2340  C     0.96770   0.32175   0.49875   0.00000  Uiso   1.00
C2341  C     0.97500   0.34650   0.46500   0.00000  Uiso   1.00
C2342  C     0.97700   0.30300   0.28300   0.00000  Uiso   1.00
N2343  N     0.98902   0.34500   0.47475   0.00000  Uiso   1.00
N2344  N     0.99020   0.31950   0.27550   0.00000  Uiso   1.00
H2345  H     0.92265   0.37565   0.45800   0.00000  Uiso   1.00
H2346  H     0.94742   0.37810   0.45175   0.00000  Uiso   1.00
H2347  H     0.96940   0.36650   0.43400   0.00000  Uiso   1.00
H2348  H     0.97315   0.27725   0.30675   0.00000  Uiso   1.00
C2349  C     0.80480   0.27950   0.35050   0.00000  Uiso   1.00
C2350  C     0.81890   0.28025   0.34650   0.00000  Uiso   1.00
C2351  C     0.82765   0.31350   0.37100   0.00000  Uiso   1.00
C2352  C     0.84270   0.30325   0.37375   0.00000  Uiso   1.00
C2353  C     0.85000   0.27850   0.34000   0.00000  Uiso   1.00
C2354  C     0.85200   0.32200   0.40800   0.00000  Uiso   1.00
N2355  N     0.86402   0.28000   0.34975   0.00000  Uiso   1.00
N2356  N     0.86520   0.30550   0.40050   0.00000  Uiso   1.00
H2357  H     0.79765   0.49935   0.33300   0.00000  Uiso   1.00
H2358  H     0.82242   0.49690   0.32675   0.00000  Uiso   1.00
H2359  H     0.84440   0.25850   0.30900   0.00000  Uiso   1.00
H2360  H     0.84815   0.34775   0.43175   0.00000  Uiso   1.00
C2361  C     0.92980   0.40450   0.35050   0.00000  Uiso   1.00
C2362  C     0.94390   0.40525   0.34650   0.00000  Uiso   1.00
C2363  C     0.95265   0.43850   0.37100   0.00000  Uiso   1.00
C2364  C     0.96770   0.42825   0.37375   0.00000  Uiso   1.00
C2365  C     0.97500   0.40350   0.34000   0.00000  Uiso   1.00
C2366  C     0.97700   0.44700   0.40800   0.00000  Uiso   1.00
N2367  N     0.98902   0.40500   0.34975   0.00000  Uiso   1.00
N2368  N     0.99020   0.43050   0.40050   0.00000  Uiso   1.00
H2369  H     0.92265   0.37435   0.33300   0.00000  Uiso   1.00
H2370  H     0.94742   0.37190   0.32675   0.00000  Uiso   1.00
H2371  H     0.96940   0.38350   0.30900   0.00000  Uiso   1.00
H2372  H     0.97315   0.47275   0.43175   0.00000  Uiso   1.00
C2373  C     0.94520   0.27950   0.27450   0.00000  Uiso   1.00
C2374  C     0.93110   0.28025   0.27850   0.00000  Uiso   1.00
C2375  C     0.92235   0.31350   0.25400   0.00000  Uiso   1.00
C2376  C     0.90730   0.30325   0.25125   0.00000  Uiso   1.00
C2377  C     0.90000   0.27850   0.28500   0.00000  Uiso   1.00
C2378  C     0.89800   0.32200   0.46700   0.00000  Uiso   1.00
N2379  N     0.88597   0.28000   0.27525   0.00000  Uiso   1.00
N2380  N     0.88480   0.30550   0.47450   0.00000  Uiso   1.00
H2381  H     0.95235   0.49935   0.29200   0.00000  Uiso   1.00
H2382  H     0.92757   0.49690   0.29825   0.00000  Uiso   1.00
H2383  H     0.90560   0.25850   0.31600   0.00000  Uiso   1.00
H2384  H     0.90185   0.34775   0.44325   0.00000  Uiso   1.00
C2385  C     0.82020   0.40450   0.27450   0.00000  Uiso   1.00
C2386  C     0.80610   0.40525   0.27850   0.00000  Uiso   1.00
C2387  C     0.79735   0.43850   0.25400   0.00000  Uiso   1.00
C2388  C     0.78230   0.42825   0.25125   0.00000  Uiso   1.00
C2389  C     0.77500   0.40350   0.28500   0.00000  Uiso   1.00
C2390  C     0.77300   0.44700   0.46700   0.00000  Uiso   1.00
N2391  N     0.76097   0.40500   0.27525   0.00000  Uiso   1.00
N2392  N     0.75980   0.43050   0.47450   0.00000  Uiso   1.00
H2393  H     0.82735   0.37435   0.29200   0.00000  Uiso   1.00
H2394  H     0.80257   0.37190   0.29825   0.00000  Uiso   1.00
H2395  H     0.78060   0.38350   0.31600   0.00000  Uiso   1.00
H2396  H     0.77685   0.47275   0.44325   0.00000  Uiso   1.00
Co2397 Co    0.87500   0.25860   0.43750   0.00000  Uiso   1.00
Co2398 Co    0.75000   0.38360   0.43750   0.00000  Uiso   1.00
Co2399 Co    0.87500   0.49140   0.31250   0.00000  Uiso   1.00
Co2400 Co    0.75000   0.36640   0.31250   0.00000  Uiso   1.00
C2401  C     0.19520   0.72050   0.39950   0.00000  Uiso   1.00
C2402  C     0.18110   0.71975   0.40350   0.00000  Uiso   1.00
C2403  C     0.17235   0.68650   0.37900   0.00000  Uiso   1.00
C2404  C     0.15730   0.69675   0.37625   0.00000  Uiso   1.00
C2405  C     0.15000   0.72150   0.41000   0.00000  Uiso   1.00
C2406  C     0.14800   0.67800   0.34200   0.00000  Uiso   1.00
N2407  N     0.13598   0.72000   0.40025   0.00000  Uiso   1.00
N2408  N     0.13480   0.69450   0.34950   0.00000  Uiso   1.00
H2409  H     0.20235   0.50065   0.41700   0.00000  Uiso   1.00
H2410  H     0.17758   0.50310   0.42325   0.00000  Uiso   1.00
H2411  H     0.15560   0.74150   0.44100   0.00000  Uiso   1.00
H2412  H     0.15185   0.65225   0.31825   0.00000  Uiso   1.00
C2413  C     0.07020   0.59550   0.39950   0.00000  Uiso   1.00
C2414  C     0.05610   0.59475   0.40350   0.00000  Uiso   1.00
C2415  C     0.04735   0.56150   0.37900   0.00000  Uiso   1.00
C2416  C     0.03230   0.57175   0.37625   0.00000  Uiso   1.00
C2417  C     0.02500   0.59650   0.41000   0.00000  Uiso   1.00
C2418  C     0.02300   0.55300   0.34200   0.00000  Uiso   1.00
N2419  N     0.01098   0.59500   0.40025   0.00000  Uiso   1.00
N2420  N     0.00980   0.56950   0.34950   0.00000  Uiso   1.00
H2421  H     0.07735   0.62565   0.41700   0.00000  Uiso   1.00
H2422  H     0.05258   0.62810   0.42325   0.00000  Uiso   1.00
H2423  H     0.03060   0.61650   0.44100   0.00000  Uiso   1.00
H2424  H     0.02685   0.52725   0.31825   0.00000  Uiso   1.00
C2425  C     0.05480   0.72050   0.47550   0.00000  Uiso   1.00
C2426  C     0.06890   0.71975   0.47150   0.00000  Uiso   1.00
C2427  C     0.07765   0.68650   0.49600   0.00000  Uiso   1.00
C2428  C     0.09270   0.69675   0.49875   0.00000  Uiso   1.00
C2429  C     0.10000   0.72150   0.46500   0.00000  Uiso   1.00
C2430  C     0.10200   0.67800   0.28300   0.00000  Uiso   1.00
N2431  N     0.11403   0.72000   0.47475   0.00000  Uiso   1.00
N2432  N     0.11520   0.69450   0.27550   0.00000  Uiso   1.00
H2433  H     0.04765   0.50065   0.45800   0.00000  Uiso   1.00
H2434  H     0.07243   0.50310   0.45175   0.00000  Uiso   1.00
H2435  H     0.09440   0.74150   0.43400   0.00000  Uiso   1.00
H2436  H     0.09815   0.65225   0.30675   0.00000  Uiso   1.00
C2437  C     0.17980   0.59550   0.47550   0.00000  Uiso   1.00
C2438  C     0.19390   0.59475   0.47150   0.00000  Uiso   1.00
C2439  C     0.20265   0.56150   0.49600   0.00000  Uiso   1.00
C2440  C     0.21770   0.57175   0.49875   0.00000  Uiso   1.00
C2441  C     0.22500   0.59650   0.46500   0.00000  Uiso   1.00
C2442  C     0.22700   0.55300   0.28300   0.00000  Uiso   1.00
N2443  N     0.23902   0.59500   0.47475   0.00000  Uiso   1.00
N2444  N     0.24020   0.56950   0.27550   0.00000  Uiso   1.00
H2445  H     0.17265   0.62565   0.45800   0.00000  Uiso   1.00
H2446  H     0.19742   0.62810   0.45175   0.00000  Uiso   1.00
H2447  H     0.21940   0.61650   0.43400   0.00000  Uiso   1.00
H2448  H     0.22315   0.52725   0.30675   0.00000  Uiso   1.00
C2449  C     0.05480   0.52950   0.35050   0.00000  Uiso   1.00
C2450  C     0.06890   0.53025   0.34650   0.00000  Uiso   1.00
C2451  C     0.07765   0.56350   0.37100   0.00000  Uiso   1.00
C2452  C     0.09270   0.55325   0.37375   0.00000  Uiso   1.00
C2453  C     0.10000   0.52850   0.34000   0.00000  Uiso   1.00
C2454  C     0.10200   0.57200   0.40800   0.00000  Uiso   1.00
N2455  N     0.11403   0.53000   0.34975   0.00000  Uiso   1.00
N2456  N     0.11520   0.55550   0.40050   0.00000  Uiso   1.00
H2457  H     0.04765   0.74935   0.33300   0.00000  Uiso   1.00
H2458  H     0.07243   0.74690   0.32675   0.00000  Uiso   1.00
H2459  H     0.09440   0.50850   0.30900   0.00000  Uiso   1.00
H2460  H     0.09815   0.59775   0.43175   0.00000  Uiso   1.00
C2461  C     0.17980   0.65450   0.35050   0.00000  Uiso   1.00
C2462  C     0.19390   0.65525   0.34650   0.00000  Uiso   1.00
C2463  C     0.20265   0.68850   0.37100   0.00000  Uiso   1.00
C2464  C     0.21770   0.67825   0.37375   0.00000  Uiso   1.00
C2465  C     0.22500   0.65350   0.34000   0.00000  Uiso   1.00
C2466  C     0.22700   0.69700   0.40800   0.00000  Uiso   1.00
N2467  N     0.23902   0.65500   0.34975   0.00000  Uiso   1.00
N2468  N     0.24020   0.68050   0.40050   0.00000  Uiso   1.00
H2469  H     0.17265   0.62435   0.33300   0.00000  Uiso   1.00
H2470  H     0.19742   0.62190   0.32675   0.00000  Uiso   1.00
H2471  H     0.21940   0.63350   0.30900   0.00000  Uiso   1.00
H2472  H     0.22315   0.72275   0.43175   0.00000  Uiso   1.00
C2473  C     0.19520   0.52950   0.27450   0.00000  Uiso   1.00
C2474  C     0.18110   0.53025   0.27850   0.00000  Uiso   1.00
C2475  C     0.17235   0.56350   0.25400   0.00000  Uiso   1.00
C2476  C     0.15730   0.55325   0.25125   0.00000  Uiso   1.00
C2477  C     0.15000   0.52850   0.28500   0.00000  Uiso   1.00
C2478  C     0.14800   0.57200   0.46700   0.00000  Uiso   1.00
N2479  N     0.13598   0.53000   0.27525   0.00000  Uiso   1.00
N2480  N     0.13480   0.55550   0.47450   0.00000  Uiso   1.00
H2481  H     0.20235   0.74935   0.29200   0.00000  Uiso   1.00
H2482  H     0.17758   0.74690   0.29825   0.00000  Uiso   1.00
H2483  H     0.15560   0.50850   0.31600   0.00000  Uiso   1.00
H2484  H     0.15185   0.59775   0.44325   0.00000  Uiso   1.00
C2485  C     0.07020   0.65450   0.27450   0.00000  Uiso   1.00
C2486  C     0.05610   0.65525   0.27850   0.00000  Uiso   1.00
C2487  C     0.04735   0.68850   0.25400   0.00000  Uiso   1.00
C2488  C     0.03230   0.67825   0.25125   0.00000  Uiso   1.00
C2489  C     0.02500   0.65350   0.28500   0.00000  Uiso   1.00
C2490  C     0.02300   0.69700   0.46700   0.00000  Uiso   1.00
N2491  N     0.01098   0.65500   0.27525   0.00000  Uiso   1.00
N2492  N     0.00980   0.68050   0.47450   0.00000  Uiso   1.00
H2493  H     0.07735   0.62435   0.29200   0.00000  Uiso   1.00
H2494  H     0.05258   0.62190   0.29825   0.00000  Uiso   1.00
H2495  H     0.03060   0.63350   0.31600   0.00000  Uiso   1.00
H2496  H     0.02685   0.72275   0.44325   0.00000  Uiso   1.00
Co2497 Co    0.12500   0.50860   0.43750   0.00000  Uiso   1.00
Co2498 Co    0.00000   0.63360   0.43750   0.00000  Uiso   1.00
Co2499 Co    0.12500   0.74140   0.31250   0.00000  Uiso   1.00
Co2500 Co    0.00000   0.61640   0.31250   0.00000  Uiso   1.00
C2501  C     0.44520   0.72050   0.39950   0.00000  Uiso   1.00
C2502  C     0.43110   0.71975   0.40350   0.00000  Uiso   1.00
C2503  C     0.42235   0.68650   0.37900   0.00000  Uiso   1.00
C2504  C     0.40730   0.69675   0.37625   0.00000  Uiso   1.00
C2505  C     0.40000   0.72150   0.41000   0.00000  Uiso   1.00
C2506  C     0.39800   0.67800   0.34200   0.00000  Uiso   1.00
N2507  N     0.38597   0.72000   0.40025   0.00000  Uiso   1.00
N2508  N     0.38480   0.69450   0.34950   0.00000  Uiso   1.00
H2509  H     0.45235   0.50065   0.41700   0.00000  Uiso   1.00
H2510  H     0.42757   0.50310   0.42325   0.00000  Uiso   1.00
H2511  H     0.40560   0.74150   0.44100   0.00000  Uiso   1.00
H2512  H     0.40185   0.65225   0.31825   0.00000  Uiso   1.00
C2513  C     0.32020   0.59550   0.39950   0.00000  Uiso   1.00
C2514  C     0.30610   0.59475   0.40350   0.00000  Uiso   1.00
C2515  C     0.29735   0.56150   0.37900   0.00000  Uiso   1.00
C2516  C     0.28230   0.57175   0.37625   0.00000  Uiso   1.00
C2517  C     0.27500   0.59650   0.41000   0.00000  Uiso   1.00
C2518  C     0.27300   0.55300   0.34200   0.00000  Uiso   1.00
N2519  N     0.26098   0.59500   0.40025   0.00000  Uiso   1.00
N2520  N     0.25980   0.56950   0.34950   0.00000  Uiso   1.00
H2521  H     0.32735   0.62565   0.41700   0.00000  Uiso   1.00
H2522  H     0.30258   0.62810   0.42325   0.00000  Uiso   1.00
H2523  H     0.28060   0.61650   0.44100   0.00000  Uiso   1.00
H2524  H     0.27685   0.52725   0.31825   0.00000  Uiso   1.00
C2525  C     0.30480   0.72050   0.47550   0.00000  Uiso   1.00
C2526  C     0.31890   0.71975   0.47150   0.00000  Uiso   1.00
C2527  C     0.32765   0.68650   0.49600   0.00000  Uiso   1.00
C2528  C     0.34270   0.69675   0.49875   0.00000  Uiso   1.00
C2529  C     0.35000   0.72150   0.46500   0.00000  Uiso   1.00
C2530  C     0.35200   0.67800   0.28300   0.00000  Uiso   1.00
N2531  N     0.36402   0.72000   0.47475   0.00000  Uiso   1.00
N2532  N     0.36520   0.69450   0.27550   0.00000  Uiso   1.00
H2533  H     0.29765   0.50065   0.45800   0.00000  Uiso   1.00
H2534  H     0.32243   0.50310   0.45175   0.00000  Uiso   1.00
H2535  H     0.34440   0.74150   0.43400   0.00000  Uiso   1.00
H2536  H     0.34815   0.65225   0.30675   0.00000  Uiso   1.00
C2537  C     0.42980   0.59550   0.47550   0.00000  Uiso   1.00
C2538  C     0.44390   0.59475   0.47150   0.00000  Uiso   1.00
C2539  C     0.45265   0.56150   0.49600   0.00000  Uiso   1.00
C2540  C     0.46770   0.57175   0.49875   0.00000  Uiso   1.00
C2541  C     0.47500   0.59650   0.46500   0.00000  Uiso   1.00
C2542  C     0.47700   0.55300   0.28300   0.00000  Uiso   1.00
N2543  N     0.48902   0.59500   0.47475   0.00000  Uiso   1.00
N2544  N     0.49020   0.56950   0.27550   0.00000  Uiso   1.00
H2545  H     0.42265   0.62565   0.45800   0.00000  Uiso   1.00
H2546  H     0.44742   0.62810   0.45175   0.00000  Uiso   1.00
H2547  H     0.46940   0.61650   0.43400   0.00000  Uiso   1.00
H2548  H     0.47315   0.52725   0.30675   0.00000  Uiso   1.00
C2549  C     0.30480   0.52950   0.35050   0.00000  Uiso   1.00
C2550  C     0.31890   0.53025   0.34650   0.00000  Uiso   1.00
C2551  C     0.32765   0.56350   0.37100   0.00000  Uiso   1.00
C2552  C     0.34270   0.55325   0.37375   0.00000  Uiso   1.00
C2553  C     0.35000   0.52850   0.34000   0.00000  Uiso   1.00
C2554  C     0.35200   0.57200   0.40800   0.00000  Uiso   1.00
N2555  N     0.36402   0.53000   0.34975   0.00000  Uiso   1.00
N2556  N     0.36520   0.55550   0.40050   0.00000  Uiso   1.00
H2557  H     0.29765   0.74935   0.33300   0.00000  Uiso   1.00
H2558  H     0.32243   0.74690   0.32675   0.00000  Uiso   1.00
H2559  H     0.34440   0.50850   0.30900   0.00000  Uiso   1.00
H2560  H     0.34815   0.59775   0.43175   0.00000  Uiso   1.00
C2561  C     0.42980   0.65450   0.35050   0.00000  Uiso   1.00
C2562  C     0.44390   0.65525   0.34650   0.00000  Uiso   1.00
C2563  C     0.45265   0.68850   0.37100   0.00000  Uiso   1.00
C2564  C     0.46770   0.67825   0.37375   0.00000  Uiso   1.00
C2565  C     0.47500   0.65350   0.34000   0.00000  Uiso   1.00
C2566  C     0.47700   0.69700   0.40800   0.00000  Uiso   1.00
N2567  N     0.48902   0.65500   0.34975   0.00000  Uiso   1.00
N2568  N     0.49020   0.68050   0.40050   0.00000  Uiso   1.00
H2569  H     0.42265   0.62435   0.33300   0.00000  Uiso   1.00
H2570  H     0.44742   0.62190   0.32675   0.00000  Uiso   1.00
H2571  H     0.46940   0.63350   0.30900   0.00000  Uiso   1.00
H2572  H     0.47315   0.72275   0.43175   0.00000  Uiso   1.00
C2573  C     0.44520   0.52950   0.27450   0.00000  Uiso   1.00
C2574  C     0.43110   0.53025   0.27850   0.00000  Uiso   1.00
C2575  C     0.42235   0.56350   0.25400   0.00000  Uiso   1.00
C2576  C     0.40730   0.55325   0.25125   0.00000  Uiso   1.00
C2577  C     0.40000   0.52850   0.28500   0.00000  Uiso   1.00
C2578  C     0.39800   0.57200   0.46700   0.00000  Uiso   1.00
N2579  N     0.38597   0.53000   0.27525   0.00000  Uiso   1.00
N2580  N     0.38480   0.55550   0.47450   0.00000  Uiso   1.00
H2581  H     0.45235   0.74935   0.29200   0.00000  Uiso   1.00
H2582  H     0.42757   0.74690   0.29825   0.00000  Uiso   1.00
H2583  H     0.40560   0.50850   0.31600   0.00000  Uiso   1.00
H2584  H     0.40185   0.59775   0.44325   0.00000  Uiso   1.00
C2585  C     0.32020   0.65450   0.27450   0.00000  Uiso   1.00
C2586  C     0.30610   0.65525   0.27850   0.00000  Uiso   1.00
C2587  C     0.29735   0.68850   0.25400   0.00000  Uiso   1.00
C2588  C     0.28230   0.67825   0.25125   0.00000  Uiso   1.00
C2589  C     0.27500   0.65350   0.28500   0.00000  Uiso   1.00
C2590  C     0.27300   0.69700   0.46700   0.00000  Uiso   1.00
N2591  N     0.26098   0.65500   0.27525   0.00000  Uiso   1.00
N2592  N     0.25980   0.68050   0.47450   0.00000  Uiso   1.00
H2593  H     0.32735   0.62435   0.29200   0.00000  Uiso   1.00
H2594  H     0.30258   0.62190   0.29825   0.00000  Uiso   1.00
H2595  H     0.28060   0.63350   0.31600   0.00000  Uiso   1.00
H2596  H     0.27685   0.72275   0.44325   0.00000  Uiso   1.00
Co2597 Co    0.37500   0.50860   0.43750   0.00000  Uiso   1.00
Co2598 Co    0.25000   0.63360   0.43750   0.00000  Uiso   1.00
Co2599 Co    0.37500   0.74140   0.31250   0.00000  Uiso   1.00
Co2600 Co    0.25000   0.61640   0.31250   0.00000  Uiso   1.00
C2601  C     0.69520   0.72050   0.39950   0.00000  Uiso   1.00
C2602  C     0.68110   0.71975   0.40350   0.00000  Uiso   1.00
C2603  C     0.67235   0.68650   0.37900   0.00000  Uiso   1.00
C2604  C     0.65730   0.69675   0.37625   0.00000  Uiso   1.00
C2605  C     0.65000   0.72150   0.41000   0.00000  Uiso   1.00
C2606  C     0.64800   0.67800   0.34200   0.00000  Uiso   1.00
N2607  N     0.63597   0.72000   0.40025   0.00000  Uiso   1.00
N2608  N     0.63480   0.69450   0.34950   0.00000  Uiso   1.00
H2609  H     0.70235   0.50065   0.41700   0.00000  Uiso   1.00
H2610  H     0.67757   0.50310   0.42325   0.00000  Uiso   1.00
H2611  H     0.65560   0.74150   0.44100   0.00000  Uiso   1.00
H2612  H     0.65185   0.65225   0.31825   0.00000  Uiso   1.00
C2613  C     0.57020   0.59550   0.39950   0.00000  Uiso   1.00
C2614  C     0.55610   0.59475   0.40350   0.00000  Uiso   1.00
C2615  C     0.54735   0.56150   0.37900   0.00000  Uiso   1.00
C2616  C     0.53230   0.57175   0.37625   0.00000  Uiso   1.00
C2617  C     0.52500   0.59650   0.41000   0.00000  Uiso   1.00
C2618  C     0.52300   0.55300   0.34200   0.00000  Uiso   1.00
N2619  N     0.51098   0.59500   0.40025   0.00000  Uiso   1.00
N2620  N     0.50980   0.56950   0.34950   0.00000  Uiso   1.00
H2621  H     0.57735   0.62565   0.41700   0.00000  Uiso   1.00
H2622  H     0.55258   0.62810   0.42325   0.00000  Uiso   1.00
H2623  H     0.53060   0.61650   0.44100   0.00000  Uiso   1.00
H2624  H     0.52685   0.52725   0.31825   0.00000  Uiso   1.00
C2625  C     0.55480   0.72050   0.47550   0.00000  Uiso   1.00
C2626  C     0.56890   0.71975   0.47150   0.00000  Uiso   1.00
C2627  C     0.57765   0.68650   0.49600   0.00000  Uiso   1.00
C2628  C     0.59270   0.69675   0.49875   0.00000  Uiso   1.00
C2629  C     0.60000   0.72150   0.46500   0.00000  Uiso   1.00
C2630  C     0.60200   0.67800   0.28300   0.00000  Uiso   1.00
N2631  N     0.61402   0.72000   0.47475   0.00000  Uiso   1.00
N2632  N     0.61520   0.69450   0.27550   0.00000  Uiso   1.00
H2633  H     0.54765   0.50065   0.45800   0.00000  Uiso   1.00
H2634  H     0.57243   0.50310   0.45175   0.00000  Uiso   1.00
H2635  H     0.59440   0.74150   0.43400   0.00000  Uiso   1.00
H2636  H     0.59815   0.65225   0.30675   0.00000  Uiso   1.00
C2637  C     0.67980   0.59550   0.47550   0.00000  Uiso   1.00
C2638  C     0.69390   0.59475   0.47150   0.00000  Uiso   1.00
C2639  C     0.70265   0.56150   0.49600   0.00000  Uiso   1.00
C2640  C     0.71770   0.57175   0.49875   0.00000  Uiso   1.00
C2641  C     0.72500   0.59650   0.46500   0.00000  Uiso   1.00
C2642  C     0.72700   0.55300   0.28300   0.00000  Uiso   1.00
N2643  N     0.73902   0.59500   0.47475   0.00000  Uiso   1.00
N2644  N     0.74020   0.56950   0.27550   0.00000  Uiso   1.00
H2645  H     0.67265   0.62565   0.45800   0.00000  Uiso   1.00
H2646  H     0.69742   0.62810   0.45175   0.00000  Uiso   1.00
H2647  H     0.71940   0.61650   0.43400   0.00000  Uiso   1.00
H2648  H     0.72315   0.52725   0.30675   0.00000  Uiso   1.00
C2649  C     0.55480   0.52950   0.35050   0.00000  Uiso   1.00
C2650  C     0.56890   0.53025   0.34650   0.00000  Uiso   1.00
C2651  C     0.57765   0.56350   0.37100   0.00000  Uiso   1.00
C2652  C     0.59270   0.55325   0.37375   0.00000  Uiso   1.00
C2653  C     0.60000   0.52850   0.34000   0.00000  Uiso   1.00
C2654  C     0.60200   0.57200   0.40800   0.00000  Uiso   1.00
N2655  N     0.61402   0.53000   0.34975   0.00000  Uiso   1.00
N2656  N     0.61520   0.55550   0.40050   0.00000  Uiso   1.00
H2657  H     0.54765   0.74935   0.33300   0.00000  Uiso   1.00
H2658  H     0.57243   0.74690   0.32675   0.00000  Uiso   1.00
H2659  H     0.59440   0.50850   0.30900   0.00000  Uiso   1.00
H2660  H     0.59815   0.59775   0.43175   0.00000  Uiso   1.00
C2661  C     0.67980   0.65450   0.35050   0.00000  Uiso   1.00
C2662  C     0.69390   0.65525   0.34650   0.00000  Uiso   1.00
C2663  C     0.70265   0.68850   0.37100   0.00000  Uiso   1.00
C2664  C     0.71770   0.67825   0.37375   0.00000  Uiso   1.00
C2665  C     0.72500   0.65350   0.34000   0.00000  Uiso   1.00
C2666  C     0.72700   0.69700   0.40800   0.00000  Uiso   1.00
N2667  N     0.73902   0.65500   0.34975   0.00000  Uiso   1.00
N2668  N     0.74020   0.68050   0.40050   0.00000  Uiso   1.00
H2669  H     0.67265   0.62435   0.33300   0.00000  Uiso   1.00
H2670  H     0.69742   0.62190   0.32675   0.00000  Uiso   1.00
H2671  H     0.71940   0.63350   0.30900   0.00000  Uiso   1.00
H2672  H     0.72315   0.72275   0.43175   0.00000  Uiso   1.00
C2673  C     0.69520   0.52950   0.27450   0.00000  Uiso   1.00
C2674  C     0.68110   0.53025   0.27850   0.00000  Uiso   1.00
C2675  C     0.67235   0.56350   0.25400   0.00000  Uiso   1.00
C2676  C     0.65730   0.55325   0.25125   0.00000  Uiso   1.00
C2677  C     0.65000   0.52850   0.28500   0.00000  Uiso   1.00
C2678  C     0.64800   0.57200   0.46700   0.00000  Uiso   1.00
N2679  N     0.63597   0.53000   0.27525   0.00000  Uiso   1.00
N2680  N     0.63480   0.55550   0.47450   0.00000  Uiso   1.00
H2681  H     0.70235   0.74935   0.29200   0.00000  Uiso   1.00
H2682  H     0.67757   0.74690   0.29825   0.00000  Uiso   1.00
H2683  H     0.65560   0.50850   0.31600   0.00000  Uiso   1.00
H2684  H     0.65185   0.59775   0.44325   0.00000  Uiso   1.00
C2685  C     0.57020   0.65450   0.27450   0.00000  Uiso   1.00
C2686  C     0.55610   0.65525   0.27850   0.00000  Uiso   1.00
C2687  C     0.54735   0.68850   0.25400   0.00000  Uiso   1.00
C2688  C     0.53230   0.67825   0.25125   0.00000  Uiso   1.00
C2689  C     0.52500   0.65350   0.28500   0.00000  Uiso   1.00
C2690  C     0.52300   0.69700   0.46700   0.00000  Uiso   1.00
N2691  N     0.51098   0.65500   0.27525   0.00000  Uiso   1.00
N2692  N     0.50980   0.68050   0.47450   0.00000  Uiso   1.00
H2693  H     0.57735   0.62435   0.29200   0.00000  Uiso   1.00
H2694  H     0.55258   0.62190   0.29825   0.00000  Uiso   1.00
H2695  H     0.53060   0.63350   0.31600   0.00000  Uiso   1.00
H2696  H     0.52685   0.72275   0.44325   0.00000  Uiso   1.00
Co2697 Co    0.62500   0.50860   0.43750   0.00000  Uiso   1.00
Co2698 Co    0.50000   0.63360   0.43750   0.00000  Uiso   1.00
Co2699 Co    0.62500   0.74140   0.31250   0.00000  Uiso   1.00
Co2700 Co    0.50000   0.61640   0.31250   0.00000  Uiso   1.00
C2701  C     0.94520   0.72050   0.39950   0.00000  Uiso   1.00
C2702  C     0.93110   0.71975   0.40350   0.00000  Uiso   1.00
C2703  C     0.92235   0.68650   0.37900   0.00000  Uiso   1.00
C2704  C     0.90730   0.69675   0.37625   0.00000  Uiso   1.00
C2705  C     0.90000   0.72150   0.41000   0.00000  Uiso   1.00
C2706  C     0.89800   0.67800   0.34200   0.00000  Uiso   1.00
N2707  N     0.88597   0.72000   0.40025   0.00000  Uiso   1.00
N2708  N     0.88480   0.69450   0.34950   0.00000  Uiso   1.00
H2709  H     0.95235   0.50065   0.41700   0.00000  Uiso   1.00
H2710  H     0.92757   0.50310   0.42325   0.00000  Uiso   1.00
H2711  H     0.90560   0.74150   0.44100   0.00000  Uiso   1.00
H2712  H     0.90185   0.65225   0.31825   0.00000  Uiso   1.00
C2713  C     0.82020   0.59550   0.39950   0.00000  Uiso   1.00
C2714  C     0.80610   0.59475   0.40350   0.00000  Uiso   1.00
C2715  C     0.79735   0.56150   0.37900   0.00000  Uiso   1.00
C2716  C     0.78230   0.57175   0.37625   0.00000  Uiso   1.00
C2717  C     0.77500   0.59650   0.41000   0.00000  Uiso   1.00
C2718  C     0.77300   0.55300   0.34200   0.00000  Uiso   1.00
N2719  N     0.76097   0.59500   0.40025   0.00000  Uiso   1.00
N2720  N     0.75980   0.56950   0.34950   0.00000  Uiso   1.00
H2721  H     0.82735   0.62565   0.41700   0.00000  Uiso   1.00
H2722  H     0.80257   0.62810   0.42325   0.00000  Uiso   1.00
H2723  H     0.78060   0.61650   0.44100   0.00000  Uiso   1.00
H2724  H     0.77685   0.52725   0.31825   0.00000  Uiso   1.00
C2725  C     0.80480   0.72050   0.47550   0.00000  Uiso   1.00
C2726  C     0.81890   0.71975   0.47150   0.00000  Uiso   1.00
C2727  C     0.82765   0.68650   0.49600   0.00000  Uiso   1.00
C2728  C     0.84270   0.69675   0.49875   0.00000  Uiso   1.00
C2729  C     0.85000   0.72150   0.46500   0.00000  Uiso   1.00
C2730  C     0.85200   0.67800   0.28300   0.00000  Uiso   1.00
N2731  N     0.86402   0.72000   0.47475   0.00000  Uiso   1.00
N2732  N     0.86520   0.69450   0.27550   0.00000  Uiso   1.00
H2733  H     0.79765   0.50065   0.45800   0.00000  Uiso   1.00
H2734  H     0.82242   0.50310   0.45175   0.00000  Uiso   1.00
H2735  H     0.84440   0.74150   0.43400   0.00000  Uiso   1.00
H2736  H     0.84815   0.65225   0.30675   0.00000  Uiso   1.00
C2737  C     0.92980   0.59550   0.47550   0.00000  Uiso   1.00
C2738  C     0.94390   0.59475   0.47150   0.00000  Uiso   1.00
C2739  C     0.95265   0.56150   0.49600   0.00000  Uiso   1.00
C2740  C     0.96770   0.57175   0.49875   0.00000  Uiso   1.00
C2741  C     0.97500   0.59650   0.46500   0.00000  Uiso   1.00
C2742  C     0.97700   0.55300   0.28300   0.00000  Uiso   1.00
N2743  N     0.98902   0.59500   0.47475   0.00000  Uiso   1.00
N2744  N     0.99020   0.56950   0.27550   0.00000  Uiso   1.00
H2745  H     0.92265   0.62565   0.45800   0.00000  Uiso   1.00
H2746  H     0.94742   0.62810   0.45175   0.00000  Uiso   1.00
H2747  H     0.96940   0.61650   0.43400   0.00000  Uiso   1.00
H2748  H     0.97315   0.52725   0.30675   0.00000  Uiso   1.00
C2749  C     0.80480   0.52950   0.35050   0.00000  Uiso   1.00
C2750  C     0.81890   0.53025   0.34650   0.00000  Uiso   1.00
C2751  C     0.82765   0.56350   0.37100   0.00000  Uiso   1.00
C2752  C     0.84270   0.55325   0.37375   0.00000  Uiso   1.00
C2753  C     0.85000   0.52850   0.34000   0.00000  Uiso   1.00
C2754  C     0.85200   0.57200   0.40800   0.00000  Uiso   1.00
N2755  N     0.86402   0.53000   0.34975   0.00000  Uiso   1.00
N2756  N     0.86520   0.55550   0.40050   0.00000  Uiso   1.00
H2757  H     0.79765   0.74935   0.33300   0.00000  Uiso   1.00
H2758  H     0.82242   0.74690   0.32675   0.00000  Uiso   1.00
H2759  H     0.84440   0.50850   0.30900   0.00000  Uiso   1.00
H2760  H     0.84815   0.59775   0.43175   0.00000  Uiso   1.00
C2761  C     0.92980   0.65450   0.35050   0.00000  Uiso   1.00
C2762  C     0.94390   0.65525   0.34650   0.00000  Uiso   1.00
C2763  C     0.95265   0.68850   0.37100   0.00000  Uiso   1.00
C2764  C     0.96770   0.67825   0.37375   0.00000  Uiso   1.00
C2765  C     0.97500   0.65350   0.34000   0.00000  Uiso   1.00
C2766  C     0.97700   0.69700   0.40800   0.00000  Uiso   1.00
N2767  N     0.98902   0.65500   0.34975   0.00000  Uiso   1.00
N2768  N     0.99020   0.68050   0.40050   0.00000  Uiso   1.00
H2769  H     0.92265   0.62435   0.33300   0.00000  Uiso   1.00
H2770  H     0.94742   0.62190   0.32675   0.00000  Uiso   1.00
H2771  H     0.96940   0.63350   0.30900   0.00000  Uiso   1.00
H2772  H     0.97315   0.72275   0.43175   0.00000  Uiso   1.00
C2773  C     0.94520   0.52950   0.27450   0.00000  Uiso   1.00
C2774  C     0.93110   0.53025   0.27850   0.00000  Uiso   1.00
C2775  C     0.92235   0.56350   0.25400   0.00000  Uiso   1.00
C2776  C     0.90730   0.55325   0.25125   0.00000  Uiso   1.00
C2777  C     0.90000   0.52850   0.28500   0.00000  Uiso   1.00
C2778  C     0.89800   0.57200   0.46700   0.00000  Uiso   1.00
N2779  N     0.88597   0.53000   0.27525   0.00000  Uiso   1.00
N2780  N     0.88480   0.55550   0.47450   0.00000  Uiso   1.00
H2781  H     0.95235   0.74935   0.29200   0.00000  Uiso   1.00
H2782  H     0.92757   0.74690   0.29825   0.00000  Uiso   1.00
H2783  H     0.90560   0.50850   0.31600   0.00000  Uiso   1.00
H2784  H     0.90185   0.59775   0.44325   0.00000  Uiso   1.00
C2785  C     0.82020   0.65450   0.27450   0.00000  Uiso   1.00
C2786  C     0.80610   0.65525   0.27850   0.00000  Uiso   1.00
C2787  C     0.79735   0.68850   0.25400   0.00000  Uiso   1.00
C2788  C     0.78230   0.67825   0.25125   0.00000  Uiso   1.00
C2789  C     0.77500   0.65350   0.28500   0.00000  Uiso   1.00
C2790  C     0.77300   0.69700   0.46700   0.00000  Uiso   1.00
N2791  N     0.76097   0.65500   0.27525   0.00000  Uiso   1.00
N2792  N     0.75980   0.68050   0.47450   0.00000  Uiso   1.00
H2793  H     0.82735   0.62435   0.29200   0.00000  Uiso   1.00
H2794  H     0.80257   0.62190   0.29825   0.00000  Uiso   1.00
H2795  H     0.78060   0.63350   0.31600   0.00000  Uiso   1.00
H2796  H     0.77685   0.72275   0.44325   0.00000  Uiso   1.00
Co2797 Co    0.87500   0.50860   0.43750   0.00000  Uiso   1.00
Co2798 Co    0.75000   0.63360   0.43750   0.00000  Uiso   1.00
Co2799 Co    0.87500   0.74140   0.31250   0.00000  Uiso   1.00
Co2800 Co    0.75000   0.61640   0.31250   0.00000  Uiso   1.00
C2801  C     0.19520   0.97050   0.39950   0.00000  Uiso   1.00
C2802  C     0.18110   0.96975   0.40350   0.00000  Uiso   1.00
C2803  C     0.17235   0.93650   0.37900   0.00000  Uiso   1.00
C2804  C     0.15730   0.94675   0.37625   0.00000  Uiso   1.00
C2805  C     0.15000   0.97150   0.41000   0.00000  Uiso   1.00
C2806  C     0.14800   0.92800   0.34200   0.00000  Uiso   1.00
N2807  N     0.13598   0.97000   0.40025   0.00000  Uiso   1.00
N2808  N     0.13480   0.94450   0.34950   0.00000  Uiso   1.00
H2809  H     0.20235   0.75065   0.41700   0.00000  Uiso   1.00
H2810  H     0.17758   0.75310   0.42325   0.00000  Uiso   1.00
H2811  H     0.15560   0.99150   0.44100   0.00000  Uiso   1.00
H2812  H     0.15185   0.90225   0.31825   0.00000  Uiso   1.00
C2813  C     0.07020   0.84550   0.39950   0.00000  Uiso   1.00
C2814  C     0.05610   0.84475   0.40350   0.00000  Uiso   1.00
C2815  C     0.04735   0.81150   0.37900   0.00000  Uiso   1.00
C2816  C     0.03230   0.82175   0.37625   0.00000  Uiso   1.00
C2817  C     0.02500   0.84650   0.41000   0.00000  Uiso   1.00
C2818  C     0.02300   0.80300   0.34200   0.00000  Uiso   1.00
N2819  N     0.01098   0.84500   0.40025   0.00000  Uiso   1.00
N2820  N     0.00980   0.81950   0.34950   0.00000  Uiso   1.00
H2821  H     0.07735   0.87565   0.41700   0.00000  Uiso   1.00
H2822  H     0.05258   0.87810   0.42325   0.00000  Uiso   1.00
H2823  H     0.03060   0.86650   0.44100   0.00000  Uiso   1.00
H2824  H     0.02685   0.77725   0.31825   0.00000  Uiso   1.00
C2825  C     0.05480   0.97050   0.47550   0.00000  Uiso   1.00
C2826  C     0.06890   0.96975   0.47150   0.00000  Uiso   1.00
C2827  C     0.07765   0.93650   0.49600   0.00000  Uiso   1.00
C2828  C     0.09270   0.94675   0.49875   0.00000  Uiso   1.00
C2829  C     0.10000   0.97150   0.46500   0.00000  Uiso   1.00
C2830  C     0.10200   0.92800   0.28300   0.00000  Uiso   1.00
N2831  N     0.11403   0.97000   0.47475   0.00000  Uiso   1.00
N2832  N     0.11520   0.94450   0.27550   0.00000  Uiso   1.00
H2833  H     0.04765   0.75065   0.45800   0.00000  Uiso   1.00
H2834  H     0.07243   0.75310   0.45175   0.00000  Uiso   1.00
H2835  H     0.09440   0.99150   0.43400   0.00000  Uiso   1.00
H2836  H     0.09815   0.90225   0.30675   0.00000  Uiso   1.00
C2837  C     0.17980   0.84550   0.47550   0.00000  Uiso   1.00
C2838  C     0.19390   0.84475   0.47150   0.00000  Uiso   1.00
C2839  C     0.20265   0.81150   0.49600   0.00000  Uiso   1.00
C2840  C     0.21770   0.82175   0.49875   0.00000  Uiso   1.00
C2841  C     0.22500   0.84650   0.46500   0.00000  Uiso   1.00
C2842  C     0.22700   0.80300   0.28300   0.00000  Uiso   1.00
N2843  N     0.23902   0.84500   0.47475   0.00000  Uiso   1.00
N2844  N     0.24020   0.81950   0.27550   0.00000  Uiso   1.00
H2845  H     0.17265   0.87565   0.45800   0.00000  Uiso   1.00
H2846  H     0.19742   0.87810   0.45175   0.00000  Uiso   1.00
H2847  H     0.21940   0.86650   0.43400   0.00000  Uiso   1.00
H2848  H     0.22315   0.77725   0.30675   0.00000  Uiso   1.00
C2849  C     0.05480   0.77950   0.35050   0.00000  Uiso   1.00
C2850  C     0.06890   0.78025   0.34650   0.00000  Uiso   1.00
C2851  C     0.07765   0.81350   0.37100   0.00000  Uiso   1.00
C2852  C     0.09270   0.80325   0.37375   0.00000  Uiso   1.00
C2853  C     0.10000   0.77850   0.34000   0.00000  Uiso   1.00
C2854  C     0.10200   0.82200   0.40800   0.00000  Uiso   1.00
N2855  N     0.11403   0.78000   0.34975   0.00000  Uiso   1.00
N2856  N     0.11520   0.80550   0.40050   0.00000  Uiso   1.00
H2857  H     0.04765   0.99935   0.33300   0.00000  Uiso   1.00
H2858  H     0.07243   0.99690   0.32675   0.00000  Uiso   1.00
H2859  H     0.09440   0.75850   0.30900   0.00000  Uiso   1.00
H2860  H     0.09815   0.84775   0.43175   0.00000  Uiso   1.00
C2861  C     0.17980   0.90450   0.35050   0.00000  Uiso   1.00
C2862  C     0.19390   0.90525   0.34650   0.00000  Uiso   1.00
C2863  C     0.20265   0.93850   0.37100   0.00000  Uiso   1.00
C2864  C     0.21770   0.92825   0.37375   0.00000  Uiso   1.00
C2865  C     0.22500   0.90350   0.34000   0.00000  Uiso   1.00
C2866  C     0.22700   0.94700   0.40800   0.00000  Uiso   1.00
N2867  N     0.23902   0.90500   0.34975   0.00000  Uiso   1.00
N2868  N     0.24020   0.93050   0.40050   0.00000  Uiso   1.00
H2869  H     0.17265   0.87435   0.33300   0.00000  Uiso   1.00
H2870  H     0.19742   0.87190   0.32675   0.00000  Uiso   1.00
H2871  H     0.21940   0.88350   0.30900   0.00000  Uiso   1.00
H2872  H     0.22315   0.97275   0.43175   0.00000  Uiso   1.00
C2873  C     0.19520   0.77950   0.27450   0.00000  Uiso   1.00
C2874  C     0.18110   0.78025   0.27850   0.00000  Uiso   1.00
C2875  C     0.17235   0.81350   0.25400   0.00000  Uiso   1.00
C2876  C     0.15730   0.80325   0.25125   0.00000  Uiso   1.00
C2877  C     0.15000   0.77850   0.28500   0.00000  Uiso   1.00
C2878  C     0.14800   0.82200   0.46700   0.00000  Uiso   1.00
N2879  N     0.13598   0.78000   0.27525   0.00000  Uiso   1.00
N2880  N     0.13480   0.80550   0.47450   0.00000  Uiso   1.00
H2881  H     0.20235   0.99935   0.29200   0.00000  Uiso   1.00
H2882  H     0.17758   0.99690   0.29825   0.00000  Uiso   1.00
H2883  H     0.15560   0.75850   0.31600   0.00000  Uiso   1.00
H2884  H     0.15185   0.84775   0.44325   0.00000  Uiso   1.00
C2885  C     0.07020   0.90450   0.27450   0.00000  Uiso   1.00
C2886  C     0.05610   0.90525   0.27850   0.00000  Uiso   1.00
C2887  C     0.04735   0.93850   0.25400   0.00000  Uiso   1.00
C2888  C     0.03230   0.92825   0.25125   0.00000  Uiso   1.00
C2889  C     0.02500   0.90350   0.28500   0.00000  Uiso   1.00
C2890  C     0.02300   0.94700   0.46700   0.00000  Uiso   1.00
N2891  N     0.01098   0.90500   0.27525   0.00000  Uiso   1.00
N2892  N     0.00980   0.93050   0.47450   0.00000  Uiso   1.00
H2893  H     0.07735   0.87435   0.29200   0.00000  Uiso   1.00
H2894  H     0.05258   0.87190   0.29825   0.00000  Uiso   1.00
H2895  H     0.03060   0.88350   0.31600   0.00000  Uiso   1.00
H2896  H     0.02685   0.97275   0.44325   0.00000  Uiso   1.00
Co2897 Co    0.12500   0.75860   0.43750   0.00000  Uiso   1.00
Co2898 Co    0.00000   0.88360   0.43750   0.00000  Uiso   1.00
Co2899 Co    0.12500   0.99140   0.31250   0.00000  Uiso   1.00
Co2900 Co    0.00000   0.86640   0.31250   0.00000  Uiso   1.00
C2901  C     0.44520   0.97050   0.39950   0.00000  Uiso   1.00
C2902  C     0.43110   0.96975   0.40350   0.00000  Uiso   1.00
C2903  C     0.42235   0.93650   0.37900   0.00000  Uiso   1.00
C2904  C     0.40730   0.94675   0.37625   0.00000  Uiso   1.00
C2905  C     0.40000   0.97150   0.41000   0.00000  Uiso   1.00
C2906  C     0.39800   0.92800   0.34200   0.00000  Uiso   1.00
N2907  N     0.38597   0.97000   0.40025   0.00000  Uiso   1.00
N2908  N     0.38480   0.94450   0.34950   0.00000  Uiso   1.00
H2909  H     0.45235   0.75065   0.41700   0.00000  Uiso   1.00
H2910  H     0.42757   0.75310   0.42325   0.00000  Uiso   1.00
H2911  H     0.40560   0.99150   0.44100   0.00000  Uiso   1.00
H2912  H     0.40185   0.90225   0.31825   0.00000  Uiso   1.00
C2913  C     0.32020   0.84550   0.39950   0.00000  Uiso   1.00
C2914  C     0.30610   0.84475   0.40350   0.00000  Uiso   1.00
C2915  C     0.29735   0.81150   0.37900   0.00000  Uiso   1.00
C2916  C     0.28230   0.82175   0.37625   0.00000  Uiso   1.00
C2917  C     0.27500   0.84650   0.41000   0.00000  Uiso   1.00
C2918  C     0.27300   0.80300   0.34200   0.00000  Uiso   1.00
N2919  N     0.26098   0.84500   0.40025   0.00000  Uiso   1.00
N2920  N     0.25980   0.81950   0.34950   0.00000  Uiso   1.00
H2921  H     0.32735   0.87565   0.41700   0.00000  Uiso   1.00
H2922  H     0.30258   0.87810   0.42325   0.00000  Uiso   1.00
H2923  H     0.28060   0.86650   0.44100   0.00000  Uiso   1.00
H2924  H     0.27685   0.77725   0.31825   0.00000  Uiso   1.00
C2925  C     0.30480   0.97050   0.47550   0.00000  Uiso   1.00
C2926  C     0.31890   0.96975   0.47150   0.00000  Uiso   1.00
C2927  C     0.32765   0.93650   0.49600   0.00000  Uiso   1.00
C2928  C     0.34270   0.94675   0.49875   0.00000  Uiso   1.00
C2929  C     0.35000   0.97150   0.46500   0.00000  Uiso   1.00
C2930  C     0.35200   0.92800   0.28300   0.00000  Uiso   1.00
N2931  N     0.36402   0.97000   0.47475   0.00000  Uiso   1.00
N2932  N     0.36520   0.94450   0.27550   0.00000  Uiso   1.00
H2933  H     0.29765   0.75065   0.45800   0.00000  Uiso   1.00
H2934  H     0.32243   0.75310   0.45175   0.00000  Uiso   1.00
H2935  H     0.34440   0.99150   0.43400   0.00000  Uiso   1.00
H2936  H     0.34815   0.90225   0.30675   0.00000  Uiso   1.00
C2937  C     0.42980   0.84550   0.47550   0.00000  Uiso   1.00
C2938  C     0.44390   0.84475   0.47150   0.00000  Uiso   1.00
C2939  C     0.45265   0.81150   0.49600   0.00000  Uiso   1.00
C2940  C     0.46770   0.82175   0.49875   0.00000  Uiso   1.00
C2941  C     0.47500   0.84650   0.46500   0.00000  Uiso   1.00
C2942  C     0.47700   0.80300   0.28300   0.00000  Uiso   1.00
N2943  N     0.48902   0.84500   0.47475   0.00000  Uiso   1.00
N2944  N     0.49020   0.81950   0.27550   0.00000  Uiso   1.00
H2945  H     0.42265   0.87565   0.45800   0.00000  Uiso   1.00
H2946  H     0.44742   0.87810   0.45175   0.00000  Uiso   1.00
H2947  H     0.46940   0.86650   0.43400   0.00000  Uiso   1.00
H2948  H     0.47315   0.77725   0.30675   0.00000  Uiso   1.00
C2949  C     0.30480   0.77950   0.35050   0.00000  Uiso   1.00
C2950  C     0.31890   0.78025   0.34650   0.00000  Uiso   1.00
C2951  C     0.32765   0.81350   0.37100   0.00000  Uiso   1.00
C2952  C     0.34270   0.80325   0.37375   0.00000  Uiso   1.00
C2953  C     0.35000   0.77850   0.34000   0.00000  Uiso   1.00
C2954  C     0.35200   0.82200   0.40800   0.00000  Uiso   1.00
N2955  N     0.36402   0.78000   0.34975   0.00000  Uiso   1.00
N2956  N     0.36520   0.80550   0.40050   0.00000  Uiso   1.00
H2957  H     0.29765   0.99935   0.33300   0.00000  Uiso   1.00
H2958  H     0.32243   0.99690   0.32675   0.00000  Uiso   1.00
H2959  H     0.34440   0.75850   0.30900   0.00000  Uiso   1.00
H2960  H     0.34815   0.84775   0.43175   0.00000  Uiso   1.00
C2961  C     0.42980   0.90450   0.35050   0.00000  Uiso   1.00
C2962  C     0.44390   0.90525   0.34650   0.00000  Uiso   1.00
C2963  C     0.45265   0.93850   0.37100   0.00000  Uiso   1.00
C2964  C     0.46770   0.92825   0.37375   0.00000  Uiso   1.00
C2965  C     0.47500   0.90350   0.34000   0.00000  Uiso   1.00
C2966  C     0.47700   0.94700   0.40800   0.00000  Uiso   1.00
N2967  N     0.48902   0.90500   0.34975   0.00000  Uiso   1.00
N2968  N     0.49020   0.93050   0.40050   0.00000  Uiso   1.00
H2969  H     0.42265   0.87435   0.33300   0.00000  Uiso   1.00
H2970  H     0.44742   0.87190   0.32675   0.00000  Uiso   1.00
H2971  H     0.46940   0.88350   0.30900   0.00000  Uiso   1.00
H2972  H     0.47315   0.97275   0.43175   0.00000  Uiso   1.00
C2973  C     0.44520   0.77950   0.27450   0.00000  Uiso   1.00
C2974  C     0.43110   0.78025   0.27850   0.00000  Uiso   1.00
C2975  C     0.42235   0.81350   0.25400   0.00000  Uiso   1.00
C2976  C     0.40730   0.80325   0.25125   0.00000  Uiso   1.00
C2977  C     0.40000   0.77850   0.28500   0.00000  Uiso   1.00
C2978  C     0.39800   0.82200   0.46700   0.00000  Uiso   1.00
N2979  N     0.38597   0.78000   0.27525   0.00000  Uiso   1.00
N2980  N     0.38480   0.80550   0.47450   0.00000  Uiso   1.00
H2981  H     0.45235   0.99935   0.29200   0.00000  Uiso   1.00
H2982  H     0.42757   0.99690   0.29825   0.00000  Uiso   1.00
H2983  H     0.40560   0.75850   0.31600   0.00000  Uiso   1.00
H2984  H     0.40185   0.84775   0.44325   0.00000  Uiso   1.00
C2985  C     0.32020   0.90450   0.27450   0.00000  Uiso   1.00
C2986  C     0.30610   0.90525   0.27850   0.00000  Uiso   1.00
C2987  C     0.29735   0.93850   0.25400   0.00000  Uiso   1.00
C2988  C     0.28230   0.92825   0.25125   0.00000  Uiso   1.00
C2989  C     0.27500   0.90350   0.28500   0.00000  Uiso   1.00
C2990  C     0.27300   0.94700   0.46700   0.00000  Uiso   1.00
N2991  N     0.26098   0.90500   0.27525   0.00000  Uiso   1.00
N2992  N     0.25980   0.93050   0.47450   0.00000  Uiso   1.00
H2993  H     0.32735   0.87435   0.29200   0.00000  Uiso   1.00
H2994  H     0.30258   0.87190   0.29825   0.00000  Uiso   1.00
H2995  H     0.28060   0.88350   0.31600   0.00000  Uiso   1.00
H2996  H     0.27685   0.97275   0.44325   0.00000  Uiso   1.00
Co2997 Co    0.37500   0.75860   0.43750   0.00000  Uiso   1.00
Co2998 Co    0.25000   0.88360   0.43750   0.00000  Uiso   1.00
Co2999 Co    0.37500   0.99140   0.31250   0.00000  Uiso   1.00
Co3000 Co    0.25000   0.86640   0.31250   0.00000  Uiso   1.00
C3001  C     0.69520   0.97050   0.39950   0.00000  Uiso   1.00
C3002  C     0.68110   0.96975   0.40350   0.00000  Uiso   1.00
C3003  C     0.67235   0.93650   0.37900   0.00000  Uiso   1.00
C3004  C     0.65730   0.94675   0.37625   0.00000  Uiso   1.00
C3005  C     0.65000   0.97150   0.41000   0.00000  Uiso   1.00
C3006  C     0.64800   0.92800   0.34200   0.00000  Uiso   1.00
N3007  N     0.63597   0.97000   0.40025   0.00000  Uiso   1.00
N3008  N     0.63480   0.94450   0.34950   0.00000  Uiso   1.00
H3009  H     0.70235   0.75065   0.41700   0.00000  Uiso   1.00
H3010  H     0.67757   0.75310   0.42325   0.00000  Uiso   1.00
H3011  H     0.65560   0.99150   0.44100   0.00000  Uiso   1.00
H3012  H     0.65185   0.90225   0.31825   0.00000  Uiso   1.00
C3013  C     0.57020   0.84550   0.39950   0.00000  Uiso   1.00
C3014  C     0.55610   0.84475   0.40350   0.00000  Uiso   1.00
C3015  C     0.54735   0.81150   0.37900   0.00000  Uiso   1.00
C3016  C     0.53230   0.82175   0.37625   0.00000  Uiso   1.00
C3017  C     0.52500   0.84650   0.41000   0.00000  Uiso   1.00
C3018  C     0.52300   0.80300   0.34200   0.00000  Uiso   1.00
N3019  N     0.51098   0.84500   0.40025   0.00000  Uiso   1.00
N3020  N     0.50980   0.81950   0.34950   0.00000  Uiso   1.00
H3021  H     0.57735   0.87565   0.41700   0.00000  Uiso   1.00
H3022  H     0.55258   0.87810   0.42325   0.00000  Uiso   1.00
H3023  H     0.53060   0.86650   0.44100   0.00000  Uiso   1.00
H3024  H     0.52685   0.77725   0.31825   0.00000  Uiso   1.00
C3025  C     0.55480   0.97050   0.47550   0.00000  Uiso   1.00
C3026  C     0.56890   0.96975   0.47150   0.00000  Uiso   1.00
C3027  C     0.57765   0.93650   0.49600   0.00000  Uiso   1.00
C3028  C     0.59270   0.94675   0.49875   0.00000  Uiso   1.00
C3029  C     0.60000   0.97150   0.46500   0.00000  Uiso   1.00
C3030  C     0.60200   0.92800   0.28300   0.00000  Uiso   1.00
N3031  N     0.61402   0.97000   0.47475   0.00000  Uiso   1.00
N3032  N     0.61520   0.94450   0.27550   0.00000  Uiso   1.00
H3033  H     0.54765   0.75065   0.45800   0.00000  Uiso   1.00
H3034  H     0.57243   0.75310   0.45175   0.00000  Uiso   1.00
H3035  H     0.59440   0.99150   0.43400   0.00000  Uiso   1.00
H3036  H     0.59815   0.90225   0.30675   0.00000  Uiso   1.00
C3037  C     0.67980   0.84550   0.47550   0.00000  Uiso   1.00
C3038  C     0.69390   0.84475   0.47150   0.00000  Uiso   1.00
C3039  C     0.70265   0.81150   0.49600   0.00000  Uiso   1.00
C3040  C     0.71770   0.82175   0.49875   0.00000  Uiso   1.00
C3041  C     0.72500   0.84650   0.46500   0.00000  Uiso   1.00
C3042  C     0.72700   0.80300   0.28300   0.00000  Uiso   1.00
N3043  N     0.73902   0.84500   0.47475   0.00000  Uiso   1.00
N3044  N     0.74020   0.81950   0.27550   0.00000  Uiso   1.00
H3045  H     0.67265   0.87565   0.45800   0.00000  Uiso   1.00
H3046  H     0.69742   0.87810   0.45175   0.00000  Uiso   1.00
H3047  H     0.71940   0.86650   0.43400   0.00000  Uiso   1.00
H3048  H     0.72315   0.77725   0.30675   0.00000  Uiso   1.00
C3049  C     0.55480   0.77950   0.35050   0.00000  Uiso   1.00
C3050  C     0.56890   0.78025   0.34650   0.00000  Uiso   1.00
C3051  C     0.57765   0.81350   0.37100   0.00000  Uiso   1.00
C3052  C     0.59270   0.80325   0.37375   0.00000  Uiso   1.00
C3053  C     0.60000   0.77850   0.34000   0.00000  Uiso   1.00
C3054  C     0.60200   0.82200   0.40800   0.00000  Uiso   1.00
N3055  N     0.61402   0.78000   0.34975   0.00000  Uiso   1.00
N3056  N     0.61520   0.80550   0.40050   0.00000  Uiso   1.00
H3057  H     0.54765   0.99935   0.33300   0.00000  Uiso   1.00
H3058  H     0.57243   0.99690   0.32675   0.00000  Uiso   1.00
H3059  H     0.59440   0.75850   0.30900   0.00000  Uiso   1.00
H3060  H     0.59815   0.84775   0.43175   0.00000  Uiso   1.00
C3061  C     0.67980   0.90450   0.35050   0.00000  Uiso   1.00
C3062  C     0.69390   0.90525   0.34650   0.00000  Uiso   1.00
C3063  C     0.70265   0.93850   0.37100   0.00000  Uiso   1.00
C3064  C     0.71770   0.92825   0.37375   0.00000  Uiso   1.00
C3065  C     0.72500   0.90350   0.34000   0.00000  Uiso   1.00
C3066  C     0.72700   0.94700   0.40800   0.00000  Uiso   1.00
N3067  N     0.73902   0.90500   0.34975   0.00000  Uiso   1.00
N3068  N     0.74020   0.93050   0.40050   0.00000  Uiso   1.00
H3069  H     0.67265   0.87435   0.33300   0.00000  Uiso   1.00
H3070  H     0.69742   0.87190   0.32675   0.00000  Uiso   1.00
H3071  H     0.71940   0.88350   0.30900   0.00000  Uiso   1.00
H3072  H     0.72315   0.97275   0.43175   0.00000  Uiso   1.00
C3073  C     0.69520   0.77950   0.27450   0.00000  Uiso   1.00
C3074  C     0.68110   0.78025   0.27850   0.00000  Uiso   1.00
C3075  C     0.67235   0.81350   0.25400   0.00000  Uiso   1.00
C3076  C     0.65730   0.80325   0.25125   0.00000  Uiso   1.00
C3077  C     0.65000   0.77850   0.28500   0.00000  Uiso   1.00
C3078  C     0.64800   0.82200   0.46700   0.00000  Uiso   1.00
N3079  N     0.63597   0.78000   0.27525   0.00000  Uiso   1.00
N3080  N     0.63480   0.80550   0.47450   0.00000  Uiso   1.00
H3081  H     0.70235   0.99935   0.29200   0.00000  Uiso   1.00
H3082  H     0.67757   0.99690   0.29825   0.00000  Uiso   1.00
H3083  H     0.65560   0.75850   0.31600   0.00000  Uiso   1.00
H3084  H     0.65185   0.84775   0.44325   0.00000  Uiso   1.00
C3085  C     0.57020   0.90450   0.27450   0.00000  Uiso   1.00
C3086  C     0.55610   0.90525   0.27850   0.00000  Uiso   1.00
C3087  C     0.54735   0.93850   0.25400   0.00000  Uiso   1.00
C3088  C     0.53230   0.92825   0.25125   0.00000  Uiso   1.00
C3089  C     0.52500   0.90350   0.28500   0.00000  Uiso   1.00
C3090  C     0.52300   0.94700   0.46700   0.00000  Uiso   1.00
N3091  N     0.51098   0.90500   0.27525   0.00000  Uiso   1.00
N3092  N     0.50980   0.93050   0.47450   0.00000  Uiso   1.00
H3093  H     0.57735   0.87435   0.29200   0.00000  Uiso   1.00
H3094  H     0.55258   0.87190   0.29825   0.00000  Uiso   1.00
H3095  H     0.53060   0.88350   0.31600   0.00000  Uiso   1.00
H3096  H     0.52685   0.97275   0.44325   0.00000  Uiso   1.00
Co3097 Co    0.62500   0.75860   0.43750   0.00000  Uiso   1.00
Co3098 Co    0.50000   0.88360   0.43750   0.00000  Uiso   1.00
Co3099 Co    0.62500   0.99140   0.31250   0.00000  Uiso   1.00
Co3100 Co    0.50000   0.86640   0.31250   0.00000  Uiso   1.00
C3101  C     0.94520   0.97050   0.39950   0.00000  Uiso   1.00
C3102  C     0.93110   0.96975   0.40350   0.00000  Uiso   1.00
C3103  C     0.92235   0.93650   0.37900   0.00000  Uiso   1.00
C3104  C     0.90730   0.94675   0.37625   0.00000  Uiso   1.00
C3105  C     0.90000   0.97150   0.41000   0.00000  Uiso   1.00
C3106  C     0.89800   0.92800   0.34200   0.00000  Uiso   1.00
N3107  N     0.88597   0.97000   0.40025   0.00000  Uiso   1.00
N3108  N     0.88480   0.94450   0.34950   0.00000  Uiso   1.00
H3109  H     0.95235   0.75065   0.41700   0.00000  Uiso   1.00
H3110  H     0.92757   0.75310   0.42325   0.00000  Uiso   1.00
H3111  H     0.90560   0.99150   0.44100   0.00000  Uiso   1.00
H3112  H     0.90185   0.90225   0.31825   0.00000  Uiso   1.00
C3113  C     0.82020   0.84550   0.39950   0.00000  Uiso   1.00
C3114  C     0.80610   0.84475   0.40350   0.00000  Uiso   1.00
C3115  C     0.79735   0.81150   0.37900   0.00000  Uiso   1.00
C3116  C     0.78230   0.82175   0.37625   0.00000  Uiso   1.00
C3117  C     0.77500   0.84650   0.41000   0.00000  Uiso   1.00
C3118  C     0.77300   0.80300   0.34200   0.00000  Uiso   1.00
N3119  N     0.76097   0.84500   0.40025   0.00000  Uiso   1.00
N3120  N     0.75980   0.81950   0.34950   0.00000  Uiso   1.00
H3121  H     0.82735   0.87565   0.41700   0.00000  Uiso   1.00
H3122  H     0.80257   0.87810   0.42325   0.00000  Uiso   1.00
H3123  H     0.78060   0.86650   0.44100   0.00000  Uiso   1.00
H3124  H     0.77685   0.77725   0.31825   0.00000  Uiso   1.00
C3125  C     0.80480   0.97050   0.47550   0.00000  Uiso   1.00
C3126  C     0.81890   0.96975   0.47150   0.00000  Uiso   1.00
C3127  C     0.82765   0.93650   0.49600   0.00000  Uiso   1.00
C3128  C     0.84270   0.94675   0.49875   0.00000  Uiso   1.00
C3129  C     0.85000   0.97150   0.46500   0.00000  Uiso   1.00
C3130  C     0.85200   0.92800   0.28300   0.00000  Uiso   1.00
N3131  N     0.86402   0.97000   0.47475   0.00000  Uiso   1.00
N3132  N     0.86520   0.94450   0.27550   0.00000  Uiso   1.00
H3133  H     0.79765   0.75065   0.45800   0.00000  Uiso   1.00
H3134  H     0.82242   0.75310   0.45175   0.00000  Uiso   1.00
H3135  H     0.84440   0.99150   0.43400   0.00000  Uiso   1.00
H3136  H     0.84815   0.90225   0.30675   0.00000  Uiso   1.00
C3137  C     0.92980   0.84550   0.47550   0.00000  Uiso   1.00
C3138  C     0.94390   0.84475   0.47150   0.00000  Uiso   1.00
C3139  C     0.95265   0.81150   0.49600   0.00000  Uiso   1.00
C3140  C     0.96770   0.82175   0.49875   0.00000  Uiso   1.00
C3141  C     0.97500   0.84650   0.46500   0.00000  Uiso   1.00
C3142  C     0.97700   0.80300   0.28300   0.00000  Uiso   1.00
N3143  N     0.98902   0.84500   0.47475   0.00000  Uiso   1.00
N3144  N     0.99020   0.81950   0.27550   0.00000  Uiso   1.00
H3145  H     0.92265   0.87565   0.45800   0.00000  Uiso   1.00
H3146  H     0.94742   0.87810   0.45175   0.00000  Uiso   1.00
H3147  H     0.96940   0.86650   0.43400   0.00000  Uiso   1.00
H3148  H     0.97315   0.77725   0.30675   0.00000  Uiso   1.00
C3149  C     0.80480   0.77950   0.35050   0.00000  Uiso   1.00
C3150  C     0.81890   0.78025   0.34650   0.00000  Uiso   1.00
C3151  C     0.82765   0.81350   0.37100   0.00000  Uiso   1.00
C3152  C     0.84270   0.80325   0.37375   0.00000  Uiso   1.00
C3153  C     0.85000   0.77850   0.34000   0.00000  Uiso   1.00
C3154  C     0.85200   0.82200   0.40800   0.00000  Uiso   1.00
N3155  N     0.86402   0.78000   0.34975   0.00000  Uiso   1.00
N3156  N     0.86520   0.80550   0.40050   0.00000  Uiso   1.00
H3157  H     0.79765   0.99935   0.33300   0.00000  Uiso   1.00
H3158  H     0.82242   0.99690   0.32675   0.00000  Uiso   1.00
H3159  H     0.84440   0.75850   0.30900   0.00000  Uiso   1.00
H3160  H     0.84815   0.84775   0.43175   0.00000  Uiso   1.00
C3161  C     0.92980   0.90450   0.35050   0.00000  Uiso   1.00
C3162  C     0.94390   0.90525   0.34650   0.00000  Uiso   1.00
C3163  C     0.95265   0.93850   0.37100   0.00000  Uiso   1.00
C3164  C     0.96770   0.92825   0.37375   0.00000  Uiso   1.00
C3165  C     0.97500   0.90350   0.34000   0.00000  Uiso   1.00
C3166  C     0.97700   0.94700   0.40800   0.00000  Uiso   1.00
N3167  N     0.98902   0.90500   0.34975   0.00000  Uiso   1.00
N3168  N     0.99020   0.93050   0.40050   0.00000  Uiso   1.00
H3169  H     0.92265   0.87435   0.33300   0.00000  Uiso   1.00
H3170  H     0.94742   0.87190   0.32675   0.00000  Uiso   1.00
H3171  H     0.96940   0.88350   0.30900   0.00000  Uiso   1.00
H3172  H     0.97315   0.97275   0.43175   0.00000  Uiso   1.00
C3173  C     0.94520   0.77950   0.27450   0.00000  Uiso   1.00
C3174  C     0.93110   0.78025   0.27850   0.00000  Uiso   1.00
C3175  C     0.92235   0.81350   0.25400   0.00000  Uiso   1.00
C3176  C     0.90730   0.80325   0.25125   0.00000  Uiso   1.00
C3177  C     0.90000   0.77850   0.28500   0.00000  Uiso   1.00
C3178  C     0.89800   0.82200   0.46700   0.00000  Uiso   1.00
N3179  N     0.88597   0.78000   0.27525   0.00000  Uiso   1.00
N3180  N     0.88480   0.80550   0.47450   0.00000  Uiso   1.00
H3181  H     0.95235   0.99935   0.29200   0.00000  Uiso   1.00
H3182  H     0.92757   0.99690   0.29825   0.00000  Uiso   1.00
H3183  H     0.90560   0.75850   0.31600   0.00000  Uiso   1.00
H3184  H     0.90185   0.84775   0.44325   0.00000  Uiso   1.00
C3185  C     0.82020   0.90450   0.27450   0.00000  Uiso   1.00
C3186  C     0.80610   0.90525   0.27850   0.00000  Uiso   1.00
C3187  C     0.79735   0.93850   0.25400   0.00000  Uiso   1.00
C3188  C     0.78230   0.92825   0.25125   0.00000  Uiso   1.00
C3189  C     0.77500   0.90350   0.28500   0.00000  Uiso   1.00
C3190  C     0.77300   0.94700   0.46700   0.00000  Uiso   1.00
N3191  N     0.76097   0.90500   0.27525   0.00000  Uiso   1.00
N3192  N     0.75980   0.93050   0.47450   0.00000  Uiso   1.00
H3193  H     0.82735   0.87435   0.29200   0.00000  Uiso   1.00
H3194  H     0.80257   0.87190   0.29825   0.00000  Uiso   1.00
H3195  H     0.78060   0.88350   0.31600   0.00000  Uiso   1.00
H3196  H     0.77685   0.97275   0.44325   0.00000  Uiso   1.00
Co3197 Co    0.87500   0.75860   0.43750   0.00000  Uiso   1.00
Co3198 Co    0.75000   0.88360   0.43750   0.00000  Uiso   1.00
Co3199 Co    0.87500   0.99140   0.31250   0.00000  Uiso   1.00
Co3200 Co    0.75000   0.86640   0.31250   0.00000  Uiso   1.00
C3201  C     0.19520   0.22050   0.64950   0.00000  Uiso   1.00
C3202  C     0.18110   0.21975   0.65350   0.00000  Uiso   1.00
C3203  C     0.17235   0.18650   0.62900   0.00000  Uiso   1.00
C3204  C     0.15730   0.19675   0.62625   0.00000  Uiso   1.00
C3205  C     0.15000   0.22150   0.66000   0.00000  Uiso   1.00
C3206  C     0.14800   0.17800   0.59200   0.00000  Uiso   1.00
N3207  N     0.13598   0.22000   0.65025   0.00000  Uiso   1.00
N3208  N     0.13480   0.19450   0.59950   0.00000  Uiso   1.00
H3209  H     0.20235   0.00065   0.66700   0.00000  Uiso   1.00
H3210  H     0.17758   0.00310   0.67325   0.00000  Uiso   1.00
H3211  H     0.15560   0.24150   0.69100   0.00000  Uiso   1.00
H3212  H     0.15185   0.15225   0.56825   0.00000  Uiso   1.00
C3213  C     0.07020   0.09550   0.64950   0.00000  Uiso   1.00
C3214  C     0.05610   0.09475   0.65350   0.00000  Uiso   1.00
C3215  C     0.04735   0.06150   0.62900   0.00000  Uiso   1.00
C3216  C     0.03230   0.07175   0.62625   0.00000  Uiso   1.00
C3217  C     0.02500   0.09650   0.66000   0.00000  Uiso   1.00
C3218  C     0.02300   0.05300   0.59200   0.00000  Uiso   1.00
N3219  N     0.01098   0.09500   0.65025   0.00000  Uiso   1.00
N3220  N     0.00980   0.06950   0.59950   0.00000  Uiso   1.00
H3221  H     0.07735   0.12565   0.66700   0.00000  Uiso   1.00
H3222  H     0.05258   0.12810   0.67325   0.00000  Uiso   1.00
H3223  H     0.03060   0.11650   0.69100   0.00000  Uiso   1.00
H3224  H     0.02685   0.02725   0.56825   0.00000  Uiso   1.00
C3225  C     0.05480   0.22050   0.72550   0.00000  Uiso   1.00
C3226  C     0.06890   0.21975   0.72150   0.00000  Uiso   1.00
C3227  C     0.07765   0.18650   0.74600   0.00000  Uiso   1.00
C3228  C     0.09270   0.19675   0.74875   0.00000  Uiso   1.00
C3229  C     0.10000   0.22150   0.71500   0.00000  Uiso   1.00
C3230  C     0.10200   0.17800   0.53300   0.00000  Uiso   1.00
N3231  N     0.11403   0.22000   0.72475   0.00000  Uiso   1.00
N3232  N     0.11520   0.19450   0.52550   0.00000  Uiso   1.00
H3233  H     0.04765   0.00065   0.70800   0.00000  Uiso   1.00
H3234  H     0.07243   0.00310   0.70175   0.00000  Uiso   1.00
H3235  H     0.09440   0.24150   0.68400   0.00000  Uiso   1.00
H3236  H     0.09815   0.15225   0.55675   0.00000  Uiso   1.00
C3237  C     0.17980   0.09550   0.72550   0.00000  Uiso   1.00
C3238  C     0.19390   0.09475   0.72150   0.00000  Uiso   1.00
C3239  C     0.20265   0.06150   0.74600   0.00000  Uiso   1.00
C3240  C     0.21770   0.07175   0.74875   0.00000  Uiso   1.00
C3241  C     0.22500   0.09650   0.71500   0.00000  Uiso   1.00
C3242  C     0.22700   0.05300   0.53300   0.00000  Uiso   1.00
N3243  N     0.23902   0.09500   0.72475   0.00000  Uiso   1.00
N3244  N     0.24020   0.06950   0.52550   0.00000  Uiso   1.00
H3245  H     0.17265   0.12565   0.70800   0.00000  Uiso   1.00
H3246  H     0.19742   0.12810   0.70175   0.00000  Uiso   1.00
H3247  H     0.21940   0.11650   0.68400   0.00000  Uiso   1.00
H3248  H     0.22315   0.02725   0.55675   0.00000  Uiso   1.00
C3249  C     0.05480   0.02950   0.60050   0.00000  Uiso   1.00
C3250  C     0.06890   0.03025   0.59650   0.00000  Uiso   1.00
C3251  C     0.07765   0.06350   0.62100   0.00000  Uiso   1.00
C3252  C     0.09270   0.05325   0.62375   0.00000  Uiso   1.00
C3253  C     0.10000   0.02850   0.59000   0.00000  Uiso   1.00
C3254  C     0.10200   0.07200   0.65800   0.00000  Uiso   1.00
N3255  N     0.11403   0.03000   0.59975   0.00000  Uiso   1.00
N3256  N     0.11520   0.05550   0.65050   0.00000  Uiso   1.00
H3257  H     0.04765   0.24935   0.58300   0.00000  Uiso   1.00
H3258  H     0.07243   0.24690   0.57675   0.00000  Uiso   1.00
H3259  H     0.09440   0.00850   0.55900   0.00000  Uiso   1.00
H3260  H     0.09815   0.09775   0.68175   0.00000  Uiso   1.00
C3261  C     0.17980   0.15450   0.60050   0.00000  Uiso   1.00
C3262  C     0.19390   0.15525   0.59650   0.00000  Uiso   1.00
C3263  C     0.20265   0.18850   0.62100   0.00000  Uiso   1.00
C3264  C     0.21770   0.17825   0.62375   0.00000  Uiso   1.00
C3265  C     0.22500   0.15350   0.59000   0.00000  Uiso   1.00
C3266  C     0.22700   0.19700   0.65800   0.00000  Uiso   1.00
N3267  N     0.23902   0.15500   0.59975   0.00000  Uiso   1.00
N3268  N     0.24020   0.18050   0.65050   0.00000  Uiso   1.00
H3269  H     0.17265   0.12435   0.58300   0.00000  Uiso   1.00
H3270  H     0.19742   0.12190   0.57675   0.00000  Uiso   1.00
H3271  H     0.21940   0.13350   0.55900   0.00000  Uiso   1.00
H3272  H     0.22315   0.22275   0.68175   0.00000  Uiso   1.00
C3273  C     0.19520   0.02950   0.52450   0.00000  Uiso   1.00
C3274  C     0.18110   0.03025   0.52850   0.00000  Uiso   1.00
C3275  C     0.17235   0.06350   0.50400   0.00000  Uiso   1.00
C3276  C     0.15730   0.05325   0.50125   0.00000  Uiso   1.00
C3277  C     0.15000   0.02850   0.53500   0.00000  Uiso   1.00
C3278  C     0.14800   0.07200   0.71700   0.00000  Uiso   1.00
N3279  N     0.13598   0.03000   0.52525   0.00000  Uiso   1.00
N3280  N     0.13480   0.05550   0.72450   0.00000  Uiso   1.00
H3281  H     0.20235   0.24935   0.54200   0.00000  Uiso   1.00
H3282  H     0.17758   0.24690   0.54825   0.00000  Uiso   1.00
H3283  H     0.15560   0.00850   0.56600   0.00000  Uiso   1.00
H3284  H     0.15185   0.09775   0.69325   0.00000  Uiso   1.00
C3285  C     0.07020   0.15450   0.52450   0.00000  Uiso   1.00
C3286  C     0.05610   0.15525   0.52850   0.00000  Uiso   1.00
C3287  C     0.04735   0.18850   0.50400   0.00000  Uiso   1.00
C3288  C     0.03230   0.17825   0.50125   0.00000  Uiso   1.00
C3289  C     0.02500   0.15350   0.53500   0.00000  Uiso   1.00
C3290  C     0.02300   0.19700   0.71700   0.00000  Uiso   1.00
N3291  N     0.01098   0.15500   0.52525   0.00000  Uiso   1.00
N3292  N     0.00980   0.18050   0.72450   0.00000  Uiso   1.00
H3293  H     0.07735   0.12435   0.54200   0.00000  Uiso   1.00
H3294  H     0.05258   0.12190   0.54825   0.00000  Uiso   1.00
H3295  H     0.03060   0.13350   0.56600   0.00000  Uiso   1.00
H3296  H     0.02685   0.22275   0.69325   0.00000  Uiso   1.00
Co3297 Co    0.12500   0.00860   0.68750   0.00000  Uiso   1.00
Co3298 Co    0.00000   0.13360   0.68750   0.00000  Uiso   1.00
Co3299 Co    0.12500   0.24140   0.56250   0.00000  Uiso   1.00
Co3300 Co    0.00000   0.11640   0.56250   0.00000  Uiso   1.00
C3301  C     0.44520   0.22050   0.64950   0.00000  Uiso   1.00
C3302  C     0.43110   0.21975   0.65350   0.00000  Uiso   1.00
C3303  C     0.42235   0.18650   0.62900   0.00000  Uiso   1.00
C3304  C     0.40730   0.19675   0.62625   0.00000  Uiso   1.00
C3305  C     0.40000   0.22150   0.66000   0.00000  Uiso   1.00
C3306  C     0.39800   0.17800   0.59200   0.00000  Uiso   1.00
N3307  N     0.38597   0.22000   0.65025   0.00000  Uiso   1.00
N3308  N     0.38480   0.19450   0.59950   0.00000  Uiso   1.00
H3309  H     0.45235   0.00065   0.66700   0.00000  Uiso   1.00
H3310  H     0.42757   0.00310   0.67325   0.00000  Uiso   1.00
H3311  H     0.40560   0.24150   0.69100   0.00000  Uiso   1.00
H3312  H     0.40185   0.15225   0.56825   0.00000  Uiso   1.00
C3313  C     0.32020   0.09550   0.64950   0.00000  Uiso   1.00
C3314  C     0.30610   0.09475   0.65350   0.00000  Uiso   1.00
C3315  C     0.29735   0.06150   0.62900   0.00000  Uiso   1.00
C3316  C     0.28230   0.07175   0.62625   0.00000  Uiso   1.00
C3317  C     0.27500   0.09650   0.66000   0.00000  Uiso   1.00
C3318  C     0.27300   0.05300   0.59200   0.00000  Uiso   1.00
N3319  N     0.26098   0.09500   0.65025   0.00000  Uiso   1.00
N3320  N     0.25980   0.06950   0.59950   0.00000  Uiso   1.00
H3321  H     0.32735   0.12565   0.66700   0.00000  Uiso   1.00
H3322  H     0.30258   0.12810   0.67325   0.00000  Uiso   1.00
H3323  H     0.28060   0.11650   0.69100   0.00000  Uiso   1.00
H3324  H     0.27685   0.02725   0.56825   0.00000  Uiso   1.00
C3325  C     0.30480   0.22050   0.72550   0.00000  Uiso   1.00
C3326  C     0.31890   0.21975   0.72150   0.00000  Uiso   1.00
C3327  C     0.32765   0.18650   0.74600   0.00000  Uiso   1.00
C3328  C     0.34270   0.19675   0.74875   0.00000  Uiso   1.00
C3329  C     0.35000   0.22150   0.71500   0.00000  Uiso   1.00
C3330  C     0.35200   0.17800   0.53300   0.00000  Uiso   1.00
N3331  N     0.36402   0.22000   0.72475   0.00000  Uiso   1.00
N3332  N     0.36520   0.19450   0.52550   0.00000  Uiso   1.00
H3333  H     0.29765   0.00065   0.70800   0.00000  Uiso   1.00
H3334  H     0.32243   0.00310   0.70175   0.00000  Uiso   1.00
H3335  H     0.34440   0.24150   0.68400   0.00000  Uiso   1.00
H3336  H     0.34815   0.15225   0.55675   0.00000  Uiso   1.00
C3337  C     0.42980   0.09550   0.72550   0.00000  Uiso   1.00
C3338  C     0.44390   0.09475   0.72150   0.00000  Uiso   1.00
C3339  C     0.45265   0.06150   0.74600   0.00000  Uiso   1.00
C3340  C     0.46770   0.07175   0.74875   0.00000  Uiso   1.00
C3341  C     0.47500   0.09650   0.71500   0.00000  Uiso   1.00
C3342  C     0.47700   0.05300   0.53300   0.00000  Uiso   1.00
N3343  N     0.48902   0.09500   0.72475   0.00000  Uiso   1.00
N3344  N     0.49020   0.06950   0.52550   0.00000  Uiso   1.00
H3345  H     0.42265   0.12565   0.70800   0.00000  Uiso   1.00
H3346  H     0.44742   0.12810   0.70175   0.00000  Uiso   1.00
H3347  H     0.46940   0.11650   0.68400   0.00000  Uiso   1.00
H3348  H     0.47315   0.02725   0.55675   0.00000  Uiso   1.00
C3349  C     0.30480   0.02950   0.60050   0.00000  Uiso   1.00
C3350  C     0.31890   0.03025   0.59650   0.00000  Uiso   1.00
C3351  C     0.32765   0.06350   0.62100   0.00000  Uiso   1.00
C3352  C     0.34270   0.05325   0.62375   0.00000  Uiso   1.00
C3353  C     0.35000   0.02850   0.59000   0.00000  Uiso   1.00
C3354  C     0.35200   0.07200   0.65800   0.00000  Uiso   1.00
N3355  N     0.36402   0.03000   0.59975   0.00000  Uiso   1.00
N3356  N     0.36520   0.05550   0.65050   0.00000  Uiso   1.00
H3357  H     0.29765   0.24935   0.58300   0.00000  Uiso   1.00
H3358  H     0.32243   0.24690   0.57675   0.00000  Uiso   1.00
H3359  H     0.34440   0.00850   0.55900   0.00000  Uiso   1.00
H3360  H     0.34815   0.09775   0.68175   0.00000  Uiso   1.00
C3361  C     0.42980   0.15450   0.60050   0.00000  Uiso   1.00
C3362  C     0.44390   0.15525   0.59650   0.00000  Uiso   1.00
C3363  C     0.45265   0.18850   0.62100   0.00000  Uiso   1.00
C3364  C     0.46770   0.17825   0.62375   0.00000  Uiso   1.00
C3365  C     0.47500   0.15350   0.59000   0.00000  Uiso   1.00
C3366  C     0.47700   0.19700   0.65800   0.00000  Uiso   1.00
N3367  N     0.48902   0.15500   0.59975   0.00000  Uiso   1.00
N3368  N     0.49020   0.18050   0.65050   0.00000  Uiso   1.00
H3369  H     0.42265   0.12435   0.58300   0.00000  Uiso   1.00
H3370  H     0.44742   0.12190   0.57675   0.00000  Uiso   1.00
H3371  H     0.46940   0.13350   0.55900   0.00000  Uiso   1.00
H3372  H     0.47315   0.22275   0.68175   0.00000  Uiso   1.00
C3373  C     0.44520   0.02950   0.52450   0.00000  Uiso   1.00
C3374  C     0.43110   0.03025   0.52850   0.00000  Uiso   1.00
C3375  C     0.42235   0.06350   0.50400   0.00000  Uiso   1.00
C3376  C     0.40730   0.05325   0.50125   0.00000  Uiso   1.00
C3377  C     0.40000   0.02850   0.53500   0.00000  Uiso   1.00
C3378  C     0.39800   0.07200   0.71700   0.00000  Uiso   1.00
N3379  N     0.38597   0.03000   0.52525   0.00000  Uiso   1.00
N3380  N     0.38480   0.05550   0.72450   0.00000  Uiso   1.00
H3381  H     0.45235   0.24935   0.54200   0.00000  Uiso   1.00
H3382  H     0.42757   0.24690   0.54825   0.00000  Uiso   1.00
H3383  H     0.40560   0.00850   0.56600   0.00000  Uiso   1.00
H3384  H     0.40185   0.09775   0.69325   0.00000  Uiso   1.00
C3385  C     0.32020   0.15450   0.52450   0.00000  Uiso   1.00
C3386  C     0.30610   0.15525   0.52850   0.00000  Uiso   1.00
C3387  C     0.29735   0.18850   0.50400   0.00000  Uiso   1.00
C3388  C     0.28230   0.17825   0.50125   0.00000  Uiso   1.00
C3389  C     0.27500   0.15350   0.53500   0.00000  Uiso   1.00
C3390  C     0.27300   0.19700   0.71700   0.00000  Uiso   1.00
N3391  N     0.26098   0.15500   0.52525   0.00000  Uiso   1.00
N3392  N     0.25980   0.18050   0.72450   0.00000  Uiso   1.00
H3393  H     0.32735   0.12435   0.54200   0.00000  Uiso   1.00
H3394  H     0.30258   0.12190   0.54825   0.00000  Uiso   1.00
H3395  H     0.28060   0.13350   0.56600   0.00000  Uiso   1.00
H3396  H     0.27685   0.22275   0.69325   0.00000  Uiso   1.00
Co3397 Co    0.37500   0.00860   0.68750   0.00000  Uiso   1.00
Co3398 Co    0.25000   0.13360   0.68750   0.00000  Uiso   1.00
Co3399 Co    0.37500   0.24140   0.56250   0.00000  Uiso   1.00
Co3400 Co    0.25000   0.11640   0.56250   0.00000  Uiso   1.00
C3401  C     0.69520   0.22050   0.64950   0.00000  Uiso   1.00
C3402  C     0.68110   0.21975   0.65350   0.00000  Uiso   1.00
C3403  C     0.67235   0.18650   0.62900   0.00000  Uiso   1.00
C3404  C     0.65730   0.19675   0.62625   0.00000  Uiso   1.00
C3405  C     0.65000   0.22150   0.66000   0.00000  Uiso   1.00
C3406  C     0.64800   0.17800   0.59200   0.00000  Uiso   1.00
N3407  N     0.63597   0.22000   0.65025   0.00000  Uiso   1.00
N3408  N     0.63480   0.19450   0.59950   0.00000  Uiso   1.00
H3409  H     0.70235   0.00065   0.66700   0.00000  Uiso   1.00
H3410  H     0.67757   0.00310   0.67325   0.00000  Uiso   1.00
H3411  H     0.65560   0.24150   0.69100   0.00000  Uiso   1.00
H3412  H     0.65185   0.15225   0.56825   0.00000  Uiso   1.00
C3413  C     0.57020   0.09550   0.64950   0.00000  Uiso   1.00
C3414  C     0.55610   0.09475   0.65350   0.00000  Uiso   1.00
C3415  C     0.54735   0.06150   0.62900   0.00000  Uiso   1.00
C3416  C     0.53230   0.07175   0.62625   0.00000  Uiso   1.00
C3417  C     0.52500   0.09650   0.66000   0.00000  Uiso   1.00
C3418  C     0.52300   0.05300   0.59200   0.00000  Uiso   1.00
N3419  N     0.51098   0.09500   0.65025   0.00000  Uiso   1.00
N3420  N     0.50980   0.06950   0.59950   0.00000  Uiso   1.00
H3421  H     0.57735   0.12565   0.66700   0.00000  Uiso   1.00
H3422  H     0.55258   0.12810   0.67325   0.00000  Uiso   1.00
H3423  H     0.53060   0.11650   0.69100   0.00000  Uiso   1.00
H3424  H     0.52685   0.02725   0.56825   0.00000  Uiso   1.00
C3425  C     0.55480   0.22050   0.72550   0.00000  Uiso   1.00
C3426  C     0.56890   0.21975   0.72150   0.00000  Uiso   1.00
C3427  C     0.57765   0.18650   0.74600   0.00000  Uiso   1.00
C3428  C     0.59270   0.19675   0.74875   0.00000  Uiso   1.00
C3429  C     0.60000   0.22150   0.71500   0.00000  Uiso   1.00
C3430  C     0.60200   0.17800   0.53300   0.00000  Uiso   1.00
N3431  N     0.61402   0.22000   0.72475   0.00000  Uiso   1.00
N3432  N     0.61520   0.19450   0.52550   0.00000  Uiso   1.00
H3433  H     0.54765   0.00065   0.70800   0.00000  Uiso   1.00
H3434  H     0.57243   0.00310   0.70175   0.00000  Uiso   1.00
H3435  H     0.59440   0.24150   0.68400   0.00000  Uiso   1.00
H3436  H     0.59815   0.15225   0.55675   0.00000  Uiso   1.00
C3437  C     0.67980   0.09550   0.72550   0.00000  Uiso   1.00
C3438  C     0.69390   0.09475   0.72150   0.00000  Uiso   1.00
C3439  C     0.70265   0.06150   0.74600   0.00000  Uiso   1.00
C3440  C     0.71770   0.07175   0.74875   0.00000  Uiso   1.00
C3441  C     0.72500   0.09650   0.71500   0.00000  Uiso   1.00
C3442  C     0.72700   0.05300   0.53300   0.00000  Uiso   1.00
N3443  N     0.73902   0.09500   0.72475   0.00000  Uiso   1.00
N3444  N     0.74020   0.06950   0.52550   0.00000  Uiso   1.00
H3445  H     0.67265   0.12565   0.70800   0.00000  Uiso   1.00
H3446  H     0.69742   0.12810   0.70175   0.00000  Uiso   1.00
H3447  H     0.71940   0.11650   0.68400   0.00000  Uiso   1.00
H3448  H     0.72315   0.02725   0.55675   0.00000  Uiso   1.00
C3449  C     0.55480   0.02950   0.60050   0.00000  Uiso   1.00
C3450  C     0.56890   0.03025   0.59650   0.00000  Uiso   1.00
C3451  C     0.57765   0.06350   0.62100   0.00000  Uiso   1.00
C3452  C     0.59270   0.05325   0.62375   0.00000  Uiso   1.00
C3453  C     0.60000   0.02850   0.59000   0.00000  Uiso   1.00
C3454  C     0.60200   0.07200   0.65800   0.00000  Uiso   1.00
N3455  N     0.61402   0.03000   0.59975   0.00000  Uiso   1.00
N3456  N     0.61520   0.05550   0.65050   0.00000  Uiso   1.00
H3457  H     0.54765   0.24935   0.58300   0.00000  Uiso   1.00
H3458  H     0.57243   0.24690   0.57675   0.00000  Uiso   1.00
H3459  H     0.59440   0.00850   0.55900   0.00000  Uiso   1.00
H3460  H     0.59815   0.09775   0.68175   0.00000  Uiso   1.00
C3461  C     0.67980   0.15450   0.60050   0.00000  Uiso   1.00
C3462  C     0.69390   0.15525   0.59650   0.00000  Uiso   1.00
C3463  C     0.70265   0.18850   0.62100   0.00000  Uiso   1.00
C3464  C     0.71770   0.17825   0.62375   0.00000  Uiso   1.00
C3465  C     0.72500   0.15350   0.59000   0.00000  Uiso   1.00
C3466  C     0.72700   0.19700   0.65800   0.00000  Uiso   1.00
N3467  N     0.73902   0.15500   0.59975   0.00000  Uiso   1.00
N3468  N     0.74020   0.18050   0.65050   0.00000  Uiso   1.00
H3469  H     0.67265   0.12435   0.58300   0.00000  Uiso   1.00
H3470  H     0.69742   0.12190   0.57675   0.00000  Uiso   1.00
H3471  H     0.71940   0.13350   0.55900   0.00000  Uiso   1.00
H3472  H     0.72315   0.22275   0.68175   0.00000  Uiso   1.00
C3473  C     0.69520   0.02950   0.52450   0.00000  Uiso   1.00
C3474  C     0.68110   0.03025   0.52850   0.00000  Uiso   1.00
C3475  C     0.67235   0.06350   0.50400   0.00000  Uiso   1.00
C3476  C     0.65730   0.05325   0.50125   0.00000  Uiso   1.00
C3477  C     0.65000   0.02850   0.53500   0.00000  Uiso   1.00
C3478  C     0.64800   0.07200   0.71700   0.00000  Uiso   1.00
N3479  N     0.63597   0.03000   0.52525   0.00000  Uiso   1.00
N3480  N     0.63480   0.05550   0.72450   0.00000  Uiso   1.00
H3481  H     0.70235   0.24935   0.54200   0.00000  Uiso   1.00
H3482  H     0.67757   0.24690   0.54825   0.00000  Uiso   1.00
H3483  H     0.65560   0.00850   0.56600   0.00000  Uiso   1.00
H3484  H     0.65185   0.09775   0.69325   0.00000  Uiso   1.00
C3485  C     0.57020   0.15450   0.52450   0.00000  Uiso   1.00
C3486  C     0.55610   0.15525   0.52850   0.00000  Uiso   1.00
C3487  C     0.54735   0.18850   0.50400   0.00000  Uiso   1.00
C3488  C     0.53230   0.17825   0.50125   0.00000  Uiso   1.00
C3489  C     0.52500   0.15350   0.53500   0.00000  Uiso   1.00
C3490  C     0.52300   0.19700   0.71700   0.00000  Uiso   1.00
N3491  N     0.51098   0.15500   0.52525   0.00000  Uiso   1.00
N3492  N     0.50980   0.18050   0.72450   0.00000  Uiso   1.00
H3493  H     0.57735   0.12435   0.54200   0.00000  Uiso   1.00
H3494  H     0.55258   0.12190   0.54825   0.00000  Uiso   1.00
H3495  H     0.53060   0.13350   0.56600   0.00000  Uiso   1.00
H3496  H     0.52685   0.22275   0.69325   0.00000  Uiso   1.00
Co3497 Co    0.62500   0.00860   0.68750   0.00000  Uiso   1.00
Co3498 Co    0.50000   0.13360   0.68750   0.00000  Uiso   1.00
Co3499 Co    0.62500   0.24140   0.56250   0.00000  Uiso   1.00
Co3500 Co    0.50000   0.11640   0.56250   0.00000  Uiso   1.00
C3501  C     0.94520   0.22050   0.64950   0.00000  Uiso   1.00
C3502  C     0.93110   0.21975   0.65350   0.00000  Uiso   1.00
C3503  C     0.92235   0.18650   0.62900   0.00000  Uiso   1.00
C3504  C     0.90730   0.19675   0.62625   0.00000  Uiso   1.00
C3505  C     0.90000   0.22150   0.66000   0.00000  Uiso   1.00
C3506  C     0.89800   0.17800   0.59200   0.00000  Uiso   1.00
N3507  N     0.88597   0.22000   0.65025   0.00000  Uiso   1.00
N3508  N     0.88480   0.19450   0.59950   0.00000  Uiso   1.00
H3509  H     0.95235   0.00065   0.66700   0.00000  Uiso   1.00
H3510  H     0.92757   0.00310   0.67325   0.00000  Uiso   1.00
H3511  H     0.90560   0.24150   0.69100   0.00000  Uiso   1.00
H3512  H     0.90185   0.15225   0.56825   0.00000  Uiso   1.00
C3513  C     0.82020   0.09550   0.64950   0.00000  Uiso   1.00
C3514  C     0.80610   0.09475   0.65350   0.00000  Uiso   1.00
C3515  C     0.79735   0.06150   0.62900   0.00000  Uiso   1.00
C3516  C     0.78230   0.07175   0.62625   0.00000  Uiso   1.00
C3517  C     0.77500   0.09650   0.66000   0.00000  Uiso   1.00
C3518  C     0.77300   0.05300   0.59200   0.00000  Uiso   1.00
N3519  N     0.76097   0.09500   0.65025   0.00000  Uiso   1.00
N3520  N     0.75980   0.06950   0.59950   0.00000  Uiso   1.00
H3521  H     0.82735   0.12565   0.66700   0.00000  Uiso   1.00
H3522  H     0.80257   0.12810   0.67325   0.00000  Uiso   1.00
H3523  H     0.78060   0.11650   0.69100   0.00000  Uiso   1.00
H3524  H     0.77685   0.02725   0.56825   0.00000  Uiso   1.00
C3525  C     0.80480   0.22050   0.72550   0.00000  Uiso   1.00
C3526  C     0.81890   0.21975   0.72150   0.00000  Uiso   1.00
C3527  C     0.82765   0.18650   0.74600   0.00000  Uiso   1.00
C3528  C     0.84270   0.19675   0.74875   0.00000  Uiso   1.00
C3529  C     0.85000   0.22150   0.71500   0.00000  Uiso   1.00
C3530  C     0.85200   0.17800   0.53300   0.00000  Uiso   1.00
N3531  N     0.86402   0.22000   0.72475   0.00000  Uiso   1.00
N3532  N     0.86520   0.19450   0.52550   0.00000  Uiso   1.00
H3533  H     0.79765   0.00065   0.70800   0.00000  Uiso   1.00
H3534  H     0.82242   0.00310   0.70175   0.00000  Uiso   1.00
H3535  H     0.84440   0.24150   0.68400   0.00000  Uiso   1.00
H3536  H     0.84815   0.15225   0.55675   0.00000  Uiso   1.00
C3537  C     0.92980   0.09550   0.72550   0.00000  Uiso   1.00
C3538  C     0.94390   0.09475   0.72150   0.00000  Uiso   1.00
C3539  C     0.95265   0.06150   0.74600   0.00000  Uiso   1.00
C3540  C     0.96770   0.07175   0.74875   0.00000  Uiso   1.00
C3541  C     0.97500   0.09650   0.71500   0.00000  Uiso   1.00
C3542  C     0.97700   0.05300   0.53300   0.00000  Uiso   1.00
N3543  N     0.98902   0.09500   0.72475   0.00000  Uiso   1.00
N3544  N     0.99020   0.06950   0.52550   0.00000  Uiso   1.00
H3545  H     0.92265   0.12565   0.70800   0.00000  Uiso   1.00
H3546  H     0.94742   0.12810   0.70175   0.00000  Uiso   1.00
H3547  H     0.96940   0.11650   0.68400   0.00000  Uiso   1.00
H3548  H     0.97315   0.02725   0.55675   0.00000  Uiso   1.00
C3549  C     0.80480   0.02950   0.60050   0.00000  Uiso   1.00
C3550  C     0.81890   0.03025   0.59650   0.00000  Uiso   1.00
C3551  C     0.82765   0.06350   0.62100   0.00000  Uiso   1.00
C3552  C     0.84270   0.05325   0.62375   0.00000  Uiso   1.00
C3553  C     0.85000   0.02850   0.59000   0.00000  Uiso   1.00
C3554  C     0.85200   0.07200   0.65800   0.00000  Uiso   1.00
N3555  N     0.86402   0.03000   0.59975   0.00000  Uiso   1.00
N3556  N     0.86520   0.05550   0.65050   0.00000  Uiso   1.00
H3557  H     0.79765   0.24935   0.58300   0.00000  Uiso   1.00
H3558  H     0.82242   0.24690   0.57675   0.00000  Uiso   1.00
H3559  H     0.84440   0.00850   0.55900   0.00000  Uiso   1.00
H3560  H     0.84815   0.09775   0.68175   0.00000  Uiso   1.00
C3561  C     0.92980   0.15450   0.60050   0.00000  Uiso   1.00
C3562  C     0.94390   0.15525   0.59650   0.00000  Uiso   1.00
C3563  C     0.95265   0.18850   0.62100   0.00000  Uiso   1.00
C3564  C     0.96770   0.17825   0.62375   0.00000  Uiso   1.00
C3565  C     0.97500   0.15350   0.59000   0.00000  Uiso   1.00
C3566  C     0.97700   0.19700   0.65800   0.00000  Uiso   1.00
N3567  N     0.98902   0.15500   0.59975   0.00000  Uiso   1.00
N3568  N     0.99020   0.18050   0.65050   0.00000  Uiso   1.00
H3569  H     0.92265   0.12435   0.58300   0.00000  Uiso   1.00
H3570  H     0.94742   0.12190   0.57675   0.00000  Uiso   1.00
H3571  H     0.96940   0.13350   0.55900   0.00000  Uiso   1.00
H3572  H     0.97315   0.22275   0.68175   0.00000  Uiso   1.00
C3573  C     0.94520   0.02950   0.52450   0.00000  Uiso   1.00
C3574  C     0.93110   0.03025   0.52850   0.00000  Uiso   1.00
C3575  C     0.92235   0.06350   0.50400   0.00000  Uiso   1.00
C3576  C     0.90730   0.05325   0.50125   0.00000  Uiso   1.00
C3577  C     0.90000   0.02850   0.53500   0.00000  Uiso   1.00
C3578  C     0.89800   0.07200   0.71700   0.00000  Uiso   1.00
N3579  N     0.88597   0.03000   0.52525   0.00000  Uiso   1.00
N3580  N     0.88480   0.05550   0.72450   0.00000  Uiso   1.00
H3581  H     0.95235   0.24935   0.54200   0.00000  Uiso   1.00
H3582  H     0.92757   0.24690   0.54825   0.00000  Uiso   1.00
H3583  H     0.90560   0.00850   0.56600   0.00000  Uiso   1.00
H3584  H     0.90185   0.09775   0.69325   0.00000  Uiso   1.00
C3585  C     0.82020   0.15450   0.52450   0.00000  Uiso   1.00
C3586  C     0.80610   0.15525   0.52850   0.00000  Uiso   1.00
C3587  C     0.79735   0.18850   0.50400   0.00000  Uiso   1.00
C3588  C     0.78230   0.17825   0.50125   0.00000  Uiso   1.00
C3589  C     0.77500   0.15350   0.53500   0.00000  Uiso   1.00
C3590  C     0.77300   0.19700   0.71700   0.00000  Uiso   1.00
N3591  N     0.76097   0.15500   0.52525   0.00000  Uiso   1.00
N3592  N     0.75980   0.18050   0.72450   0.00000  Uiso   1.00
H3593  H     0.82735   0.12435   0.54200   0.00000  Uiso   1.00
H3594  H     0.80257   0.12190   0.54825   0.00000  Uiso   1.00
H3595  H     0.78060   0.13350   0.56600   0.00000  Uiso   1.00
H3596  H     0.77685   0.22275   0.69325   0.00000  Uiso   1.00
Co3597 Co    0.87500   0.00860   0.68750   0.00000  Uiso   1.00
Co3598 Co    0.75000   0.13360   0.68750   0.00000  Uiso   1.00
Co3599 Co    0.87500   0.24140   0.56250   0.00000  Uiso   1.00
Co3600 Co    0.75000   0.11640   0.56250   0.00000  Uiso   1.00
C3601  C     0.19520   0.47050   0.64950   0.00000  Uiso   1.00
C3602  C     0.18110   0.46975   0.65350   0.00000  Uiso   1.00
C3603  C     0.17235   0.43650   0.62900   0.00000  Uiso   1.00
C3604  C     0.15730   0.44675   0.62625   0.00000  Uiso   1.00
C3605  C     0.15000   0.47150   0.66000   0.00000  Uiso   1.00
C3606  C     0.14800   0.42800   0.59200   0.00000  Uiso   1.00
N3607  N     0.13598   0.47000   0.65025   0.00000  Uiso   1.00
N3608  N     0.13480   0.44450   0.59950   0.00000  Uiso   1.00
H3609  H     0.20235   0.25065   0.66700   0.00000  Uiso   1.00
H3610  H     0.17758   0.25310   0.67325   0.00000  Uiso   1.00
H3611  H     0.15560   0.49150   0.69100   0.00000  Uiso   1.00
H3612  H     0.15185   0.40225   0.56825   0.00000  Uiso   1.00
C3613  C     0.07020   0.34550   0.64950   0.00000  Uiso   1.00
C3614  C     0.05610   0.34475   0.65350   0.00000  Uiso   1.00
C3615  C     0.04735   0.31150   0.62900   0.00000  Uiso   1.00
C3616  C     0.03230   0.32175   0.62625   0.00000  Uiso   1.00
C3617  C     0.02500   0.34650   0.66000   0.00000  Uiso   1.00
C3618  C     0.02300   0.30300   0.59200   0.00000  Uiso   1.00
N3619  N     0.01098   0.34500   0.65025   0.00000  Uiso   1.00
N3620  N     0.00980   0.31950   0.59950   0.00000  Uiso   1.00
H3621  H     0.07735   0.37565   0.66700   0.00000  Uiso   1.00
H3622  H     0.05258   0.37810   0.67325   0.00000  Uiso   1.00
H3623  H     0.03060   0.36650   0.69100   0.00000  Uiso   1.00
H3624  H     0.02685   0.27725   0.56825   0.00000  Uiso   1.00
C3625  C     0.05480   0.47050   0.72550   0.00000  Uiso   1.00
C3626  C     0.06890   0.46975   0.72150   0.00000  Uiso   1.00
C3627  C     0.07765   0.43650   0.74600   0.00000  Uiso   1.00
C3628  C     0.09270   0.44675   0.74875   0.00000  Uiso   1.00
C3629  C     0.10000   0.47150   0.71500   0.00000  Uiso   1.00
C3630  C     0.10200   0.42800   0.53300   0.00000  Uiso   1.00
N3631  N     0.11403   0.47000   0.72475   0.00000  Uiso   1.00
N3632  N     0.11520   0.44450   0.52550   0.00000  Uiso   1.00
H3633  H     0.04765   0.25065   0.70800   0.00000  Uiso   1.00
H3634  H     0.07243   0.25310   0.70175   0.00000  Uiso   1.00
H3635  H     0.09440   0.49150   0.68400   0.00000  Uiso   1.00
H3636  H     0.09815   0.40225   0.55675   0.00000  Uiso   1.00
C3637  C     0.17980   0.34550   0.72550   0.00000  Uiso   1.00
C3638  C     0.19390   0.34475   0.72150   0.00000  Uiso   1.00
C3639  C     0.20265   0.31150   0.74600   0.00000  Uiso   1.00
C3640  C     0.21770   0.32175   0.74875   0.00000  Uiso   1.00
C3641  C     0.22500   0.34650   0.71500   0.00000  Uiso   1.00
C3642  C     0.22700   0.30300   0.53300   0.00000  Uiso   1.00
N3643  N     0.23902   0.34500   0.72475   0.00000  Uiso   1.00
N3644  N     0.24020   0.31950   0.52550   0.00000  Uiso   1.00
H3645  H     0.17265   0.37565   0.70800   0.00000  Uiso   1.00
H3646  H     0.19742   0.37810   0.70175   0.00000  Uiso   1.00
H3647  H     0.21940   0.36650   0.68400   0.00000  Uiso   1.00
H3648  H     0.22315   0.27725   0.55675   0.00000  Uiso   1.00
C3649  C     0.05480   0.27950   0.60050   0.00000  Uiso   1.00
C3650  C     0.06890   0.28025   0.59650   0.00000  Uiso   1.00
C3651  C     0.07765   0.31350   0.62100   0.00000  Uiso   1.00
C3652  C     0.09270   0.30325   0.62375   0.00000  Uiso   1.00
C3653  C     0.10000   0.27850   0.59000   0.00000  Uiso   1.00
C3654  C     0.10200   0.32200   0.65800   0.00000  Uiso   1.00
N3655  N     0.11403   0.28000   0.59975   0.00000  Uiso   1.00
N3656  N     0.11520   0.30550   0.65050   0.00000  Uiso   1.00
H3657  H     0.04765   0.49935   0.58300   0.00000  Uiso   1.00
H3658  H     0.07243   0.49690   0.57675   0.00000  Uiso   1.00
H3659  H     0.09440   0.25850   0.55900   0.00000  Uiso   1.00
H3660  H     0.09815   0.34775   0.68175   0.00000  Uiso   1.00
C3661  C     0.17980   0.40450   0.60050   0.00000  Uiso   1.00
C3662  C     0.19390   0.40525   0.59650   0.00000  Uiso   1.00
C3663  C     0.20265   0.43850   0.62100   0.00000  Uiso   1.00
C3664  C     0.21770   0.42825   0.62375   0.00000  Uiso   1.00
C3665  C     0.22500   0.40350   0.59000   0.00000  Uiso   1.00
C3666  C     0.22700   0.44700   0.65800   0.00000  Uiso   1.00
N3667  N     0.23902   0.40500   0.59975   0.00000  Uiso   1.00
N3668  N     0.24020   0.43050   0.65050   0.00000  Uiso   1.00
H3669  H     0.17265   0.37435   0.58300   0.00000  Uiso   1.00
H3670  H     0.19742   0.37190   0.57675   0.00000  Uiso   1.00
H3671  H     0.21940   0.38350   0.55900   0.00000  Uiso   1.00
H3672  H     0.22315   0.47275   0.68175   0.00000  Uiso   1.00
C3673  C     0.19520   0.27950   0.52450   0.00000  Uiso   1.00
C3674  C     0.18110   0.28025   0.52850   0.00000  Uiso   1.00
C3675  C     0.17235   0.31350   0.50400   0.00000  Uiso   1.00
C3676  C     0.15730   0.30325   0.50125   0.00000  Uiso   1.00
C3677  C     0.15000   0.27850   0.53500   0.00000  Uiso   1.00
C3678  C     0.14800   0.32200   0.71700   0.00000  Uiso   1.00
N3679  N     0.13598   0.28000   0.52525   0.00000  Uiso   1.00
N3680  N     0.13480   0.30550   0.72450   0.00000  Uiso   1.00
H3681  H     0.20235   0.49935   0.54200   0.00000  Uiso   1.00
H3682  H     0.17758   0.49690   0.54825   0.00000  Uiso   1.00
H3683  H     0.15560   0.25850   0.56600   0.00000  Uiso   1.00
H3684  H     0.15185   0.34775   0.69325   0.00000  Uiso   1.00
C3685  C     0.07020   0.40450   0.52450   0.00000  Uiso   1.00
C3686  C     0.05610   0.40525   0.52850   0.00000  Uiso   1.00
C3687  C     0.04735   0.43850   0.50400   0.00000  Uiso   1.00
C3688  C     0.03230   0.42825   0.50125   0.00000  Uiso   1.00
C3689  C     0.02500   0.40350   0.53500   0.00000  Uiso   1.00
C3690  C     0.02300   0.44700   0.71700   0.00000  Uiso   1.00
N3691  N     0.01098   0.40500   0.52525   0.00000  Uiso   1.00
N3692  N     0.00980   0.43050   0.72450   0.00000  Uiso   1.00
H3693  H     0.07735   0.37435   0.54200   0.00000  Uiso   1.00
H3694  H     0.05258   0.37190   0.54825   0.00000  Uiso   1.00
H3695  H     0.03060   0.38350   0.56600   0.00000  Uiso   1.00
H3696  H     0.02685   0.47275   0.69325   0.00000  Uiso   1.00
Co3697 Co    0.12500   0.25860   0.68750   0.00000  Uiso   1.00
Co3698 Co    0.00000   0.38360   0.68750   0.00000  Uiso   1.00
Co3699 Co    0.12500   0.49140   0.56250   0.00000  Uiso   1.00
Co3700 Co    0.00000   0.36640   0.56250   0.00000  Uiso   1.00
C3701  C     0.44520   0.47050   0.64950   0.00000  Uiso   1.00
C3702  C     0.43110   0.46975   0.65350   0.00000  Uiso   1.00
C3703  C     0.42235   0.43650   0.62900   0.00000  Uiso   1.00
C3704  C     0.40730   0.44675   0.62625   0.00000  Uiso   1.00
C3705  C     0.40000   0.47150   0.66000   0.00000  Uiso   1.00
C3706  C     0.39800   0.42800   0.59200   0.00000  Uiso   1.00
N3707  N     0.38597   0.47000   0.65025   0.00000  Uiso   1.00
N3708  N     0.38480   0.44450   0.59950   0.00000  Uiso   1.00
H3709  H     0.45235   0.25065   0.66700   0.00000  Uiso   1.00
H3710  H     0.42757   0.25310   0.67325   0.00000  Uiso   1.00
H3711  H     0.40560   0.49150   0.69100   0.00000  Uiso   1.00
H3712  H     0.40185   0.40225   0.56825   0.00000  Uiso   1.00
C3713  C     0.32020   0.34550   0.64950   0.00000  Uiso   1.00
C3714  C     0.30610   0.34475   0.65350   0.00000  Uiso   1.00
C3715  C     0.29735   0.31150   0.62900   0.00000  Uiso   1.00
C3716  C     0.28230   0.32175   0.62625   0.00000  Uiso   1.00
C3717  C     0.27500   0.34650   0.66000   0.00000  Uiso   1.00
C3718  C     0.27300   0.30300   0.59200   0.00000  Uiso   1.00
N3719  N     0.26098   0.34500   0.65025   0.00000  Uiso   1.00
N3720  N     0.25980   0.31950   0.59950   0.00000  Uiso   1.00
H3721  H     0.32735   0.37565   0.66700   0.00000  Uiso   1.00
H3722  H     0.30258   0.37810   0.67325   0.00000  Uiso   1.00
H3723  H     0.28060   0.36650   0.69100   0.00000  Uiso   1.00
H3724  H     0.27685   0.27725   0.56825   0.00000  Uiso   1.00
C3725  C     0.30480   0.47050   0.72550   0.00000  Uiso   1.00
C3726  C     0.31890   0.46975   0.72150   0.00000  Uiso   1.00
C3727  C     0.32765   0.43650   0.74600   0.00000  Uiso   1.00
C3728  C     0.34270   0.44675   0.74875   0.00000  Uiso   1.00
C3729  C     0.35000   0.47150   0.71500   0.00000  Uiso   1.00
C3730  C     0.35200   0.42800   0.53300   0.00000  Uiso   1.00
N3731  N     0.36402   0.47000   0.72475   0.00000  Uiso   1.00
N3732  N     0.36520   0.44450   0.52550   0.00000  Uiso   1.00
H3733  H     0.29765   0.25065   0.70800   0.00000  Uiso   1.00
H3734  H     0.32243   0.25310   0.70175   0.00000  Uiso   1.00
H3735  H     0.34440   0.49150   0.68400   0.00000  Uiso   1.00
H3736  H     0.34815   0.40225   0.55675   0.00000  Uiso   1.00
C3737  C     0.42980   0.34550   0.72550   0.00000  Uiso   1.00
C3738  C     0.44390   0.34475   0.72150   0.00000  Uiso   1.00
C3739  C     0.45265   0.31150   0.74600   0.00000  Uiso   1.00
C3740  C     0.46770   0.32175   0.74875   0.00000  Uiso   1.00
C3741  C     0.47500   0.34650   0.71500   0.00000  Uiso   1.00
C3742  C     0.47700   0.30300   0.53300   0.00000  Uiso   1.00
N3743  N     0.48902   0.34500   0.72475   0.00000  Uiso   1.00
N3744  N     0.49020   0.31950   0.52550   0.00000  Uiso   1.00
H3745  H     0.42265   0.37565   0.70800   0.00000  Uiso   1.00
H3746  H     0.44742   0.37810   0.70175   0.00000  Uiso   1.00
H3747  H     0.46940   0.36650   0.68400   0.00000  Uiso   1.00
H3748  H     0.47315   0.27725   0.55675   0.00000  Uiso   1.00
C3749  C     0.30480   0.27950   0.60050   0.00000  Uiso   1.00
C3750  C     0.31890   0.28025   0.59650   0.00000  Uiso   1.00
C3751  C     0.32765   0.31350   0.62100   0.00000  Uiso   1.00
C3752  C     0.34270   0.30325   0.62375   0.00000  Uiso   1.00
C3753  C     0.35000   0.27850   0.59000   0.00000  Uiso   1.00
C3754  C     0.35200   0.32200   0.65800   0.00000  Uiso   1.00
N3755  N     0.36402   0.28000   0.59975   0.00000  Uiso   1.00
N3756  N     0.36520   0.30550   0.65050   0.00000  Uiso   1.00
H3757  H     0.29765   0.49935   0.58300   0.00000  Uiso   1.00
H3758  H     0.32243   0.49690   0.57675   0.00000  Uiso   1.00
H3759  H     0.34440   0.25850   0.55900   0.00000  Uiso   1.00
H3760  H     0.34815   0.34775   0.68175   0.00000  Uiso   1.00
C3761  C     0.42980   0.40450   0.60050   0.00000  Uiso   1.00
C3762  C     0.44390   0.40525   0.59650   0.00000  Uiso   1.00
C3763  C     0.45265   0.43850   0.62100   0.00000  Uiso   1.00
C3764  C     0.46770   0.42825   0.62375   0.00000  Uiso   1.00
C3765  C     0.47500   0.40350   0.59000   0.00000  Uiso   1.00
C3766  C     0.47700   0.44700   0.65800   0.00000  Uiso   1.00
N3767  N     0.48902   0.40500   0.59975   0.00000  Uiso   1.00
N3768  N     0.49020   0.43050   0.65050   0.00000  Uiso   1.00
H3769  H     0.42265   0.37435   0.58300   0.00000  Uiso   1.00
H3770  H     0.44742   0.37190   0.57675   0.00000  Uiso   1.00
H3771  H     0.46940   0.38350   0.55900   0.00000  Uiso   1.00
H3772  H     0.47315   0.47275   0.68175   0.00000  Uiso   1.00
C3773  C     0.44520   0.27950   0.52450   0.00000  Uiso   1.00
C3774  C     0.43110   0.28025   0.52850   0.00000  Uiso   1.00
C3775  C     0.42235   0.31350   0.50400   0.00000  Uiso   1.00
C3776  C     0.40730   0.30325   0.50125   0.00000  Uiso   1.00
C3777  C     0.40000   0.27850   0.53500   0.00000  Uiso   1.00
C3778  C     0.39800   0.32200   0.71700   0.00000  Uiso   1.00
N3779  N     0.38597   0.28000   0.52525   0.00000  Uiso   1.00
N3780  N     0.38480   0.30550   0.72450   0.00000  Uiso   1.00
H3781  H     0.45235   0.49935   0.54200   0.00000  Uiso   1.00
H3782  H     0.42757   0.49690   0.54825   0.00000  Uiso   1.00
H3783  H     0.40560   0.25850   0.56600   0.00000  Uiso   1.00
H3784  H     0.40185   0.34775   0.69325   0.00000  Uiso   1.00
C3785  C     0.32020   0.40450   0.52450   0.00000  Uiso   1.00
C3786  C     0.30610   0.40525   0.52850   0.00000  Uiso   1.00
C3787  C     0.29735   0.43850   0.50400   0.00000  Uiso   1.00
C3788  C     0.28230   0.42825   0.50125   0.00000  Uiso   1.00
C3789  C     0.27500   0.40350   0.53500   0.00000  Uiso   1.00
C3790  C     0.27300   0.44700   0.71700   0.00000  Uiso   1.00
N3791  N     0.26098   0.40500   0.52525   0.00000  Uiso   1.00
N3792  N     0.25980   0.43050   0.72450   0.00000  Uiso   1.00
H3793  H     0.32735   0.37435   0.54200   0.00000  Uiso   1.00
H3794  H     0.30258   0.37190   0.54825   0.00000  Uiso   1.00
H3795  H     0.28060   0.38350   0.56600   0.00000  Uiso   1.00
H3796  H     0.27685   0.47275   0.69325   0.00000  Uiso   1.00
Co3797 Co    0.37500   0.25860   0.68750   0.00000  Uiso   1.00
Co3798 Co    0.25000   0.38360   0.68750   0.00000  Uiso   1.00
Co3799 Co    0.37500   0.49140   0.56250   0.00000  Uiso   1.00
Co3800 Co    0.25000   0.36640   0.56250   0.00000  Uiso   1.00
C3801  C     0.69520   0.47050   0.64950   0.00000  Uiso   1.00
C3802  C     0.68110   0.46975   0.65350   0.00000  Uiso   1.00
C3803  C     0.67235   0.43650   0.62900   0.00000  Uiso   1.00
C3804  C     0.65730   0.44675   0.62625   0.00000  Uiso   1.00
C3805  C     0.65000   0.47150   0.66000   0.00000  Uiso   1.00
C3806  C     0.64800   0.42800   0.59200   0.00000  Uiso   1.00
N3807  N     0.63597   0.47000   0.65025   0.00000  Uiso   1.00
N3808  N     0.63480   0.44450   0.59950   0.00000  Uiso   1.00
H3809  H     0.70235   0.25065   0.66700   0.00000  Uiso   1.00
H3810  H     0.67757   0.25310   0.67325   0.00000  Uiso   1.00
H3811  H     0.65560   0.49150   0.69100   0.00000  Uiso   1.00
H3812  H     0.65185   0.40225   0.56825   0.00000  Uiso   1.00
C3813  C     0.57020   0.34550   0.64950   0.00000  Uiso   1.00
C3814  C     0.55610   0.34475   0.65350   0.00000  Uiso   1.00
C3815  C     0.54735   0.31150   0.62900   0.00000  Uiso   1.00
C3816  C     0.53230   0.32175   0.62625   0.00000  Uiso   1.00
C3817  C     0.52500   0.34650   0.66000   0.00000  Uiso   1.00
C3818  C     0.52300   0.30300   0.59200   0.00000  Uiso   1.00
N3819  N     0.51098   0.34500   0.65025   0.00000  Uiso   1.00
N3820  N     0.50980   0.31950   0.59950   0.00000  Uiso   1.00
H3821  H     0.57735   0.37565   0.66700   0.00000  Uiso   1.00
H3822  H     0.55258   0.37810   0.67325   0.00000  Uiso   1.00
H3823  H     0.53060   0.36650   0.69100   0.00000  Uiso   1.00
H3824  H     0.52685   0.27725   0.56825   0.00000  Uiso   1.00
C3825  C     0.55480   0.47050   0.72550   0.00000  Uiso   1.00
C3826  C     0.56890   0.46975   0.72150   0.00000  Uiso   1.00
C3827  C     0.57765   0.43650   0.74600   0.00000  Uiso   1.00
C3828  C     0.59270   0.44675   0.74875   0.00000  Uiso   1.00
C3829  C     0.60000   0.47150   0.71500   0.00000  Uiso   1.00
C3830  C     0.60200   0.42800   0.53300   0.00000  Uiso   1.00
N3831  N     0.61402   0.47000   0.72475   0.00000  Uiso   1.00
N3832  N     0.61520   0.44450   0.52550   0.00000  Uiso   1.00
H3833  H     0.54765   0.25065   0.70800   0.00000  Uiso   1.00
H3834  H     0.57243   0.25310   0.70175   0.00000  Uiso   1.00
H3835  H     0.59440   0.49150   0.68400   0.00000  Uiso   1.00
H3836  H     0.59815   0.40225   0.55675   0.00000  Uiso   1.00
C3837  C     0.67980   0.34550   0.72550   0.00000  Uiso   1.00
C3838  C     0.69390   0.34475   0.72150   0.00000  Uiso   1.00
C3839  C     0.70265   0.31150   0.74600   0.00000  Uiso   1.00
C3840  C     0.71770   0.32175   0.74875   0.00000  Uiso   1.00
C3841  C     0.72500   0.34650   0.71500   0.00000  Uiso   1.00
C3842  C     0.72700   0.30300   0.53300   0.00000  Uiso   1.00
N3843  N     0.73902   0.34500   0.72475   0.00000  Uiso   1.00
N3844  N     0.74020   0.31950   0.52550   0.00000  Uiso   1.00
H3845  H     0.67265   0.37565   0.70800   0.00000  Uiso   1.00
H3846  H     0.69742   0.37810   0.70175   0.00000  Uiso   1.00
H3847  H     0.71940   0.36650   0.68400   0.00000  Uiso   1.00
H3848  H     0.72315   0.27725   0.55675   0.00000  Uiso   1.00
C3849  C     0.55480   0.27950   0.60050   0.00000  Uiso   1.00
C3850  C     0.56890   0.28025   0.59650   0.00000  Uiso   1.00
C3851  C     0.57765   0.31350   0.62100   0.00000  Uiso   1.00
C3852  C     0.59270   0.30325   0.62375   0.00000  Uiso   1.00
C3853  C     0.60000   0.27850   0.59000   0.00000  Uiso   1.00
C3854  C     0.60200   0.32200   0.65800   0.00000  Uiso   1.00
N3855  N     0.61402   0.28000   0.59975   0.00000  Uiso   1.00
N3856  N     0.61520   0.30550   0.65050   0.00000  Uiso   1.00
H3857  H     0.54765   0.49935   0.58300   0.00000  Uiso   1.00
H3858  H     0.57243   0.49690   0.57675   0.00000  Uiso   1.00
H3859  H     0.59440   0.25850   0.55900   0.00000  Uiso   1.00
H3860  H     0.59815   0.34775   0.68175   0.00000  Uiso   1.00
C3861  C     0.67980   0.40450   0.60050   0.00000  Uiso   1.00
C3862  C     0.69390   0.40525   0.59650   0.00000  Uiso   1.00
C3863  C     0.70265   0.43850   0.62100   0.00000  Uiso   1.00
C3864  C     0.71770   0.42825   0.62375   0.00000  Uiso   1.00
C3865  C     0.72500   0.40350   0.59000   0.00000  Uiso   1.00
C3866  C     0.72700   0.44700   0.65800   0.00000  Uiso   1.00
N3867  N     0.73902   0.40500   0.59975   0.00000  Uiso   1.00
N3868  N     0.74020   0.43050   0.65050   0.00000  Uiso   1.00
H3869  H     0.67265   0.37435   0.58300   0.00000  Uiso   1.00
H3870  H     0.69742   0.37190   0.57675   0.00000  Uiso   1.00
H3871  H     0.71940   0.38350   0.55900   0.00000  Uiso   1.00
H3872  H     0.72315   0.47275   0.68175   0.00000  Uiso   1.00
C3873  C     0.69520   0.27950   0.52450   0.00000  Uiso   1.00
C3874  C     0.68110   0.28025   0.52850   0.00000  Uiso   1.00
C3875  C     0.67235   0.31350   0.50400   0.00000  Uiso   1.00
C3876  C     0.65730   0.30325   0.50125   0.00000  Uiso   1.00
C3877  C     0.65000   0.27850   0.53500   0.00000  Uiso   1.00
C3878  C     0.64800   0.32200   0.71700   0.00000  Uiso   1.00
N3879  N     0.63597   0.28000   0.52525   0.00000  Uiso   1.00
N3880  N     0.63480   0.30550   0.72450   0.00000  Uiso   1.00
H3881  H     0.70235   0.49935   0.54200   0.00000  Uiso   1.00
H3882  H     0.67757   0.49690   0.54825   0.00000  Uiso   1.00
H3883  H     0.65560   0.25850   0.56600   0.00000  Uiso   1.00
H3884  H     0.65185   0.34775   0.69325   0.00000  Uiso   1.00
C3885  C     0.57020   0.40450   0.52450   0.00000  Uiso   1.00
C3886  C     0.55610   0.40525   0.52850   0.00000  Uiso   1.00
C3887  C     0.54735   0.43850   0.50400   0.00000  Uiso   1.00
C3888  C     0.53230   0.42825   0.50125   0.00000  Uiso   1.00
C3889  C     0.52500   0.40350   0.53500   0.00000  Uiso   1.00
C3890  C     0.52300   0.44700   0.71700   0.00000  Uiso   1.00
N3891  N     0.51098   0.40500   0.52525   0.00000  Uiso   1.00
N3892  N     0.50980   0.43050   0.72450   0.00000  Uiso   1.00
H3893  H     0.57735   0.37435   0.54200   0.00000  Uiso   1.00
H3894  H     0.55258   0.37190   0.54825   0.00000  Uiso   1.00
H3895  H     0.53060   0.38350   0.56600   0.00000  Uiso   1.00
H3896  H     0.52685   0.47275   0.69325   0.00000  Uiso   1.00
Co3897 Co    0.62500   0.25860   0.68750   0.00000  Uiso   1.00
Co3898 Co    0.50000   0.38360   0.68750   0.00000  Uiso   1.00
Co3899 Co    0.62500   0.49140   0.56250   0.00000  Uiso   1.00
Co3900 Co    0.50000   0.36640   0.56250   0.00000  Uiso   1.00
C3901  C     0.94520   0.47050   0.64950   0.00000  Uiso   1.00
C3902  C     0.93110   0.46975   0.65350   0.00000  Uiso   1.00
C3903  C     0.92235   0.43650   0.62900   0.00000  Uiso   1.00
C3904  C     0.90730   0.44675   0.62625   0.00000  Uiso   1.00
C3905  C     0.90000   0.47150   0.66000   0.00000  Uiso   1.00
C3906  C     0.89800   0.42800   0.59200   0.00000  Uiso   1.00
N3907  N     0.88597   0.47000   0.65025   0.00000  Uiso   1.00
N3908  N     0.88480   0.44450   0.59950   0.00000  Uiso   1.00
H3909  H     0.95235   0.25065   0.66700   0.00000  Uiso   1.00
H3910  H     0.92757   0.25310   0.67325   0.00000  Uiso   1.00
H3911  H     0.90560   0.49150   0.69100   0.00000  Uiso   1.00
H3912  H     0.90185   0.40225   0.56825   0.00000  Uiso   1.00
C3913  C     0.82020   0.34550   0.64950   0.00000  Uiso   1.00
C3914  C     0.80610   0.34475   0.65350   0.00000  Uiso   1.00
C3915  C     0.79735   0.31150   0.62900   0.00000  Uiso   1.00
C3916  C     0.78230   0.32175   0.62625   0.00000  Uiso   1.00
C3917  C     0.77500   0.34650   0.66000   0.00000  Uiso   1.00
C3918  C     0.77300   0.30300   0.59200   0.00000  Uiso   1.00
N3919  N     0.76097   0.34500   0.65025   0.00000  Uiso   1.00
N3920  N     0.75980   0.31950   0.59950   0.00000  Uiso   1.00
H3921  H     0.82735   0.37565   0.66700   0.00000  Uiso   1.00
H3922  H     0.80257   0.37810   0.67325   0.00000  Uiso   1.00
H3923  H     0.78060   0.36650   0.69100   0.00000  Uiso   1.00
H3924  H     0.77685   0.27725   0.56825   0.00000  Uiso   1.00
C3925  C     0.80480   0.47050   0.72550   0.00000  Uiso   1.00
C3926  C     0.81890   0.46975   0.72150   0.00000  Uiso   1.00
C3927  C     0.82765   0.43650   0.74600   0.00000  Uiso   1.00
C3928  C     0.84270   0.44675   0.74875   0.00000  Uiso   1.00
C3929  C     0.85000   0.47150   0.71500   0.00000  Uiso   1.00
C3930  C     0.85200   0.42800   0.53300   0.00000  Uiso   1.00
N3931  N     0.86402   0.47000   0.72475   0.00000  Uiso   1.00
N3932  N     0.86520   0.44450   0.52550   0.00000  Uiso   1.00
H3933  H     0.79765   0.25065   0.70800   0.00000  Uiso   1.00
H3934  H     0.82242   0.25310   0.70175   0.00000  Uiso   1.00
H3935  H     0.84440   0.49150   0.68400   0.00000  Uiso   1.00
H3936  H     0.84815   0.40225   0.55675   0.00000  Uiso   1.00
C3937  C     0.92980   0.34550   0.72550   0.00000  Uiso   1.00
C3938  C     0.94390   0.34475   0.72150   0.00000  Uiso   1.00
C3939  C     0.95265   0.31150   0.74600   0.00000  Uiso   1.00
C3940  C     0.96770   0.32175   0.74875   0.00000  Uiso   1.00
C3941  C     0.97500   0.34650   0.71500   0.00000  Uiso   1.00
C3942  C     0.97700   0.30300   0.53300   0.00000  Uiso   1.00
N3943  N     0.98902   0.34500   0.72475   0.00000  Uiso   1.00
N3944  N     0.99020   0.31950   0.52550   0.00000  Uiso   1.00
H3945  H     0.92265   0.37565   0.70800   0.00000  Uiso   1.00
H3946  H     0.94742   0.37810   0.70175   0.00000  Uiso   1.00
H3947  H     0.96940   0.36650   0.68400   0.00000  Uiso   1.00
H3948  H     0.97315   0.27725   0.55675   0.00000  Uiso   1.00
C3949  C     0.80480   0.27950   0.60050   0.00000  Uiso   1.00
C3950  C     0.81890   0.28025   0.59650   0.00000  Uiso   1.00
C3951  C     0.82765   0.31350   0.62100   0.00000  Uiso   1.00
C3952  C     0.84270   0.30325   0.62375   0.00000  Uiso   1.00
C3953  C     0.85000   0.27850   0.59000   0.00000  Uiso   1.00
C3954  C     0.85200   0.32200   0.65800   0.00000  Uiso   1.00
N3955  N     0.86402   0.28000   0.59975   0.00000  Uiso   1.00
N3956  N     0.86520   0.30550   0.65050   0.00000  Uiso   1.00
H3957  H     0.79765   0.49935   0.58300   0.00000  Uiso   1.00
H3958  H     0.82242   0.49690   0.57675   0.00000  Uiso   1.00
H3959  H     0.84440   0.25850   0.55900   0.00000  Uiso   1.00
H3960  H     0.84815   0.34775   0.68175   0.00000  Uiso   1.00
C3961  C     0.92980   0.40450   0.60050   0.00000  Uiso   1.00
C3962  C     0.94390   0.40525   0.59650   0.00000  Uiso   1.00
C3963  C     0.95265   0.43850   0.62100   0.00000  Uiso   1.00
C3964  C     0.96770   0.42825   0.62375   0.00000  Uiso   1.00
C3965  C     0.97500   0.40350   0.59000   0.00000  Uiso   1.00
C3966  C     0.97700   0.44700   0.65800   0.00000  Uiso   1.00
N3967  N     0.98902   0.40500   0.59975   0.00000  Uiso   1.00
N3968  N     0.99020   0.43050   0.65050   0.00000  Uiso   1.00
H3969  H     0.92265   0.37435   0.58300   0.00000  Uiso   1.00
H3970  H     0.94742   0.37190   0.57675   0.00000  Uiso   1.00
H3971  H     0.96940   0.38350   0.55900   0.00000  Uiso   1.00
H3972  H     0.97315   0.47275   0.68175   0.00000  Uiso   1.00
C3973  C     0.94520   0.27950   0.52450   0.00000  Uiso   1.00
C3974  C     0.93110   0.28025   0.52850   0.00000  Uiso   1.00
C3975  C     0.92235   0.31350   0.50400   0.00000  Uiso   1.00
C3976  C     0.90730   0.30325   0.50125   0.00000  Uiso   1.00
C3977  C     0.90000   0.27850   0.53500   0.00000  Uiso   1.00
C3978  C     0.89800   0.32200   0.71700   0.00000  Uiso   1.00
N3979  N     0.88597   0.28000   0.52525   0.00000  Uiso   1.00
N3980  N     0.88480   0.30550   0.72450   0.00000  Uiso   1.00
H3981  H     0.95235   0.49935   0.54200   0.00000  Uiso   1.00
H3982  H     0.92757   0.49690   0.54825   0.00000  Uiso   1.00
H3983  H     0.90560   0.25850   0.56600   0.00000  Uiso   1.00
H3984  H     0.90185   0.34775   0.69325   0.00000  Uiso   1.00
C3985  C     0.82020   0.40450   0.52450   0.00000  Uiso   1.00
C3986  C     0.80610   0.40525   0.52850   0.00000  Uiso   1.00
C3987  C     0.79735   0.43850   0.50400   0.00000  Uiso   1.00
C3988  C     0.78230   0.42825   0.50125   0.00000  Uiso   1.00
C3989  C     0.77500   0.40350   0.53500   0.00000  Uiso   1.00
C3990  C     0.77300   0.44700   0.71700   0.00000  Uiso   1.00
N3991  N     0.76097   0.40500   0.52525   0.00000  Uiso   1.00
N3992  N     0.75980   0.43050   0.72450   0.00000  Uiso   1.00
H3993  H     0.82735   0.37435   0.54200   0.00000  Uiso   1.00
H3994  H     0.80257   0.37190   0.54825   0.00000  Uiso   1.00
H3995  H     0.78060   0.38350   0.56600   0.00000  Uiso   1.00
H3996  H     0.77685   0.47275   0.69325   0.00000  Uiso   1.00
Co3997 Co    0.87500   0.25860   0.68750   0.00000  Uiso   1.00
Co3998 Co    0.75000   0.38360   0.68750   0.00000  Uiso   1.00
Co3999 Co    0.87500   0.49140   0.56250   0.00000  Uiso   1.00
Co4000 Co    0.75000   0.36640   0.56250   0.00000  Uiso   1.00
C4001  C     0.19520   0.72050   0.64950   0.00000  Uiso   1.00
C4002  C     0.18110   0.71975   0.65350   0.00000  Uiso   1.00
C4003  C     0.17235   0.68650   0.62900   0.00000  Uiso   1.00
C4004  C     0.15730   0.69675   0.62625   0.00000  Uiso   1.00
C4005  C     0.15000   0.72150   0.66000   0.00000  Uiso   1.00
C4006  C     0.14800   0.67800   0.59200   0.00000  Uiso   1.00
N4007  N     0.13598   0.72000   0.65025   0.00000  Uiso   1.00
N4008  N     0.13480   0.69450   0.59950   0.00000  Uiso   1.00
H4009  H     0.20235   0.50065   0.66700   0.00000  Uiso   1.00
H4010  H     0.17758   0.50310   0.67325   0.00000  Uiso   1.00
H4011  H     0.15560   0.74150   0.69100   0.00000  Uiso   1.00
H4012  H     0.15185   0.65225   0.56825   0.00000  Uiso   1.00
C4013  C     0.07020   0.59550   0.64950   0.00000  Uiso   1.00
C4014  C     0.05610   0.59475   0.65350   0.00000  Uiso   1.00
C4015  C     0.04735   0.56150   0.62900   0.00000  Uiso   1.00
C4016  C     0.03230   0.57175   0.62625   0.00000  Uiso   1.00
C4017  C     0.02500   0.59650   0.66000   0.00000  Uiso   1.00
C4018  C     0.02300   0.55300   0.59200   0.00000  Uiso   1.00
N4019  N     0.01098   0.59500   0.65025   0.00000  Uiso   1.00
N4020  N     0.00980   0.56950   0.59950   0.00000  Uiso   1.00
H4021  H     0.07735   0.62565   0.66700   0.00000  Uiso   1.00
H4022  H     0.05258   0.62810   0.67325   0.00000  Uiso   1.00
H4023  H     0.03060   0.61650   0.69100   0.00000  Uiso   1.00
H4024  H     0.02685   0.52725   0.56825   0.00000  Uiso   1.00
C4025  C     0.05480   0.72050   0.72550   0.00000  Uiso   1.00
C4026  C     0.06890   0.71975   0.72150   0.00000  Uiso   1.00
C4027  C     0.07765   0.68650   0.74600   0.00000  Uiso   1.00
C4028  C     0.09270   0.69675   0.74875   0.00000  Uiso   1.00
C4029  C     0.10000   0.72150   0.71500   0.00000  Uiso   1.00
C4030  C     0.10200   0.67800   0.53300   0.00000  Uiso   1.00
N4031  N     0.11403   0.72000   0.72475   0.00000  Uiso   1.00
N4032  N     0.11520   0.69450   0.52550   0.00000  Uiso   1.00
H4033  H     0.04765   0.50065   0.70800   0.00000  Uiso   1.00
H4034  H     0.07243   0.50310   0.70175   0.00000  Uiso   1.00
H4035  H     0.09440   0.74150   0.68400   0.00000  Uiso   1.00
H4036  H     0.09815   0.65225   0.55675   0.00000  Uiso   1.00
C4037  C     0.17980   0.59550   0.72550   0.00000  Uiso   1.00
C4038  C     0.19390   0.59475   0.72150   0.00000  Uiso   1.00
C4039  C     0.20265   0.56150   0.74600   0.00000  Uiso   1.00
C4040  C     0.21770   0.57175   0.74875   0.00000  Uiso   1.00
C4041  C     0.22500   0.59650   0.71500   0.00000  Uiso   1.00
C4042  C     0.22700   0.55300   0.53300   0.00000  Uiso   1.00
N4043  N     0.23902   0.59500   0.72475   0.00000  Uiso   1.00
N4044  N     0.24020   0.56950   0.52550   0.00000  Uiso   1.00
H4045  H     0.17265   0.62565   0.70800   0.00000  Uiso   1.00
H4046  H     0.19742   0.62810   0.70175   0.00000  Uiso   1.00
H4047  H     0.21940   0.61650   0.68400   0.00000  Uiso   1.00
H4048  H     0.22315   0.52725   0.55675   0.00000  Uiso   1.00
C4049  C     0.05480   0.52950   0.60050   0.00000  Uiso   1.00
C4050  C     0.06890   0.53025   0.59650   0.00000  Uiso   1.00
C4051  C     0.07765   0.56350   0.62100   0.00000  Uiso   1.00
C4052  C     0.09270   0.55325   0.62375   0.00000  Uiso   1.00
C4053  C     0.10000   0.52850   0.59000   0.00000  Uiso   1.00
C4054  C     0.10200   0.57200   0.65800   0.00000  Uiso   1.00
N4055  N     0.11403   0.53000   0.59975   0.00000  Uiso   1.00
N4056  N     0.11520   0.55550   0.65050   0.00000  Uiso   1.00
H4057  H     0.04765   0.74935   0.58300   0.00000  Uiso   1.00
H4058  H     0.07243   0.74690   0.57675   0.00000  Uiso   1.00
H4059  H     0.09440   0.50850   0.55900   0.00000  Uiso   1.00
H4060  H     0.09815   0.59775   0.68175   0.00000  Uiso   1.00
C4061  C     0.17980   0.65450   0.60050   0.00000  Uiso   1.00
C4062  C     0.19390   0.65525   0.59650   0.00000  Uiso   1.00
C4063  C     0.20265   0.68850   0.62100   0.00000  Uiso   1.00
C4064  C     0.21770   0.67825   0.62375   0.00000  Uiso   1.00
C4065  C     0.22500   0.65350   0.59000   0.00000  Uiso   1.00
C4066  C     0.22700   0.69700   0.65800   0.00000  Uiso   1.00
N4067  N     0.23902   0.65500   0.59975   0.00000  Uiso   1.00
N4068  N     0.24020   0.68050   0.65050   0.00000  Uiso   1.00
H4069  H     0.17265   0.62435   0.58300   0.00000  Uiso   1.00
H4070  H     0.19742   0.62190   0.57675   0.00000  Uiso   1.00
H4071  H     0.21940   0.63350   0.55900   0.00000  Uiso   1.00
H4072  H     0.22315   0.72275   0.68175   0.00000  Uiso   1.00
C4073  C     0.19520   0.52950   0.52450   0.00000  Uiso   1.00
C4074  C     0.18110   0.53025   0.52850   0.00000  Uiso   1.00
C4075  C     0.17235   0.56350   0.50400   0.00000  Uiso   1.00
C4076  C     0.15730   0.55325   0.50125   0.00000  Uiso   1.00
C4077  C     0.15000   0.52850   0.53500   0.00000  Uiso   1.00
C4078  C     0.14800   0.57200   0.71700   0.00000  Uiso   1.00
N4079  N     0.13598   0.53000   0.52525   0.00000  Uiso   1.00
N4080  N     0.13480   0.55550   0.72450   0.00000  Uiso   1.00
H4081  H     0.20235   0.74935   0.54200   0.00000  Uiso   1.00
H4082  H     0.17758   0.74690   0.54825   0.00000  Uiso   1.00
H4083  H     0.15560   0.50850   0.56600   0.00000  Uiso   1.00
H4084  H     0.15185   0.59775   0.69325   0.00000  Uiso   1.00
C4085  C     0.07020   0.65450   0.52450   0.00000  Uiso   1.00
C4086  C     0.05610   0.65525   0.52850   0.00000  Uiso   1.00
C4087  C     0.04735   0.68850   0.50400   0.00000  Uiso   1.00
C4088  C     0.03230   0.67825   0.50125   0.00000  Uiso   1.00
C4089  C     0.02500   0.65350   0.53500   0.00000  Uiso   1.00
C4090  C     0.02300   0.69700   0.71700   0.00000  Uiso   1.00
N4091  N     0.01098   0.65500   0.52525   0.00000  Uiso   1.00
N4092  N     0.00980   0.68050   0.72450   0.00000  Uiso   1.00
H4093  H     0.07735   0.62435   0.54200   0.00000  Uiso   1.00
H4094  H     0.05258   0.62190   0.54825   0.00000  Uiso   1.00
H4095  H     0.03060   0.63350   0.56600   0.00000  Uiso   1.00
H4096  H     0.02685   0.72275   0.69325   0.00000  Uiso   1.00
Co4097 Co    0.12500   0.50860   0.68750   0.00000  Uiso   1.00
Co4098 Co    0.00000   0.63360   0.68750   0.00000  Uiso   1.00
Co4099 Co    0.12500   0.74140   0.56250   0.00000  Uiso   1.00
Co4100 Co    0.00000   0.61640   0.56250   0.00000  Uiso   1.00
C4101  C     0.44520   0.72050   0.64950   0.00000  Uiso   1.00
C4102  C     0.43110   0.71975   0.65350   0.00000  Uiso   1.00
C4103  C     0.42235   0.68650   0.62900   0.00000  Uiso   1.00
C4104  C     0.40730   0.69675   0.62625   0.00000  Uiso   1.00
C4105  C     0.40000   0.72150   0.66000   0.00000  Uiso   1.00
C4106  C     0.39800   0.67800   0.59200   0.00000  Uiso   1.00
N4107  N     0.38597   0.72000   0.65025   0.00000  Uiso   1.00
N4108  N     0.38480   0.69450   0.59950   0.00000  Uiso   1.00
H4109  H     0.45235   0.50065   0.66700   0.00000  Uiso   1.00
H4110  H     0.42757   0.50310   0.67325   0.00000  Uiso   1.00
H4111  H     0.40560   0.74150   0.69100   0.00000  Uiso   1.00
H4112  H     0.40185   0.65225   0.56825   0.00000  Uiso   1.00
C4113  C     0.32020   0.59550   0.64950   0.00000  Uiso   1.00
C4114  C     0.30610   0.59475   0.65350   0.00000  Uiso   1.00
C4115  C     0.29735   0.56150   0.62900   0.00000  Uiso   1.00
C4116  C     0.28230   0.57175   0.62625   0.00000  Uiso   1.00
C4117  C     0.27500   0.59650   0.66000   0.00000  Uiso   1.00
C4118  C     0.27300   0.55300   0.59200   0.00000  Uiso   1.00
N4119  N     0.26098   0.59500   0.65025   0.00000  Uiso   1.00
N4120  N     0.25980   0.56950   0.59950   0.00000  Uiso   1.00
H4121  H     0.32735   0.62565   0.66700   0.00000  Uiso   1.00
H4122  H     0.30258   0.62810   0.67325   0.00000  Uiso   1.00
H4123  H     0.28060   0.61650   0.69100   0.00000  Uiso   1.00
H4124  H     0.27685   0.52725   0.56825   0.00000  Uiso   1.00
C4125  C     0.30480   0.72050   0.72550   0.00000  Uiso   1.00
C4126  C     0.31890   0.71975   0.72150   0.00000  Uiso   1.00
C4127  C     0.32765   0.68650   0.74600   0.00000  Uiso   1.00
C4128  C     0.34270   0.69675   0.74875   0.00000  Uiso   1.00
C4129  C     0.35000   0.72150   0.71500   0.00000  Uiso   1.00
C4130  C     0.35200   0.67800   0.53300   0.00000  Uiso   1.00
N4131  N     0.36402   0.72000   0.72475   0.00000  Uiso   1.00
N4132  N     0.36520   0.69450   0.52550   0.00000  Uiso   1.00
H4133  H     0.29765   0.50065   0.70800   0.00000  Uiso   1.00
H4134  H     0.32243   0.50310   0.70175   0.00000  Uiso   1.00
H4135  H     0.34440   0.74150   0.68400   0.00000  Uiso   1.00
H4136  H     0.34815   0.65225   0.55675   0.00000  Uiso   1.00
C4137  C     0.42980   0.59550   0.72550   0.00000  Uiso   1.00
C4138  C     0.44390   0.59475   0.72150   0.00000  Uiso   1.00
C4139  C     0.45265   0.56150   0.74600   0.00000  Uiso   1.00
C4140  C     0.46770   0.57175   0.74875   0.00000  Uiso   1.00
C4141  C     0.47500   0.59650   0.71500   0.00000  Uiso   1.00
C4142  C     0.47700   0.55300   0.53300   0.00000  Uiso   1.00
N4143  N     0.48902   0.59500   0.72475   0.00000  Uiso   1.00
N4144  N     0.49020   0.56950   0.52550   0.00000  Uiso   1.00
H4145  H     0.42265   0.62565   0.70800   0.00000  Uiso   1.00
H4146  H     0.44742   0.62810   0.70175   0.00000  Uiso   1.00
H4147  H     0.46940   0.61650   0.68400   0.00000  Uiso   1.00
H4148  H     0.47315   0.52725   0.55675   0.00000  Uiso   1.00
C4149  C     0.30480   0.52950   0.60050   0.00000  Uiso   1.00
C4150  C     0.31890   0.53025   0.59650   0.00000  Uiso   1.00
C4151  C     0.32765   0.56350   0.62100   0.00000  Uiso   1.00
C4152  C     0.34270   0.55325   0.62375   0.00000  Uiso   1.00
C4153  C     0.35000   0.52850   0.59000   0.00000  Uiso   1.00
C4154  C     0.35200   0.57200   0.65800   0.00000  Uiso   1.00
N4155  N     0.36402   0.53000   0.59975   0.00000  Uiso   1.00
N4156  N     0.36520   0.55550   0.65050   0.00000  Uiso   1.00
H4157  H     0.29765   0.74935   0.58300   0.00000  Uiso   1.00
H4158  H     0.32243   0.74690   0.57675   0.00000  Uiso   1.00
H4159  H     0.34440   0.50850   0.55900   0.00000  Uiso   1.00
H4160  H     0.34815   0.59775   0.68175   0.00000  Uiso   1.00
C4161  C     0.42980   0.65450   0.60050   0.00000  Uiso   1.00
C4162  C     0.44390   0.65525   0.59650   0.00000  Uiso   1.00
C4163  C     0.45265   0.68850   0.62100   0.00000  Uiso   1.00
C4164  C     0.46770   0.67825   0.62375   0.00000  Uiso   1.00
C4165  C     0.47500   0.65350   0.59000   0.00000  Uiso   1.00
C4166  C     0.47700   0.69700   0.65800   0.00000  Uiso   1.00
N4167  N     0.48902   0.65500   0.59975   0.00000  Uiso   1.00
N4168  N     0.49020   0.68050   0.65050   0.00000  Uiso   1.00
H4169  H     0.42265   0.62435   0.58300   0.00000  Uiso   1.00
H4170  H     0.44742   0.62190   0.57675   0.00000  Uiso   1.00
H4171  H     0.46940   0.63350   0.55900   0.00000  Uiso   1.00
H4172  H     0.47315   0.72275   0.68175   0.00000  Uiso   1.00
C4173  C     0.44520   0.52950   0.52450   0.00000  Uiso   1.00
C4174  C     0.43110   0.53025   0.52850   0.00000  Uiso   1.00
C4175  C     0.42235   0.56350   0.50400   0.00000  Uiso   1.00
C4176  C     0.40730   0.55325   0.50125   0.00000  Uiso   1.00
C4177  C     0.40000   0.52850   0.53500   0.00000  Uiso   1.00
C4178  C     0.39800   0.57200   0.71700   0.00000  Uiso   1.00
N4179  N     0.38597   0.53000   0.52525   0.00000  Uiso   1.00
N4180  N     0.38480   0.55550   0.72450   0.00000  Uiso   1.00
H4181  H     0.45235   0.74935   0.54200   0.00000  Uiso   1.00
H4182  H     0.42757   0.74690   0.54825   0.00000  Uiso   1.00
H4183  H     0.40560   0.50850   0.56600   0.00000  Uiso   1.00
H4184  H     0.40185   0.59775   0.69325   0.00000  Uiso   1.00
C4185  C     0.32020   0.65450   0.52450   0.00000  Uiso   1.00
C4186  C     0.30610   0.65525   0.52850   0.00000  Uiso   1.00
C4187  C     0.29735   0.68850   0.50400   0.00000  Uiso   1.00
C4188  C     0.28230   0.67825   0.50125   0.00000  Uiso   1.00
C4189  C     0.27500   0.65350   0.53500   0.00000  Uiso   1.00
C4190  C     0.27300   0.69700   0.71700   0.00000  Uiso   1.00
N4191  N     0.26098   0.65500   0.52525   0.00000  Uiso   1.00
N4192  N     0.25980   0.68050   0.72450   0.00000  Uiso   1.00
H4193  H     0.32735   0.62435   0.54200   0.00000  Uiso   1.00
H4194  H     0.30258   0.62190   0.54825   0.00000  Uiso   1.00
H4195  H     0.28060   0.63350   0.56600   0.00000  Uiso   1.00
H4196  H     0.27685   0.72275   0.69325   0.00000  Uiso   1.00
Co4197 Co    0.37500   0.50860   0.68750   0.00000  Uiso   1.00
Co4198 Co    0.25000   0.63360   0.68750   0.00000  Uiso   1.00
Co4199 Co    0.37500   0.74140   0.56250   0.00000  Uiso   1.00
Co4200 Co    0.25000   0.61640   0.56250   0.00000  Uiso   1.00
C4201  C     0.69520   0.72050   0.64950   0.00000  Uiso   1.00
C4202  C     0.68110   0.71975   0.65350   0.00000  Uiso   1.00
C4203  C     0.67235   0.68650   0.62900   0.00000  Uiso   1.00
C4204  C     0.65730   0.69675   0.62625   0.00000  Uiso   1.00
C4205  C     0.65000   0.72150   0.66000   0.00000  Uiso   1.00
C4206  C     0.64800   0.67800   0.59200   0.00000  Uiso   1.00
N4207  N     0.63597   0.72000   0.65025   0.00000  Uiso   1.00
N4208  N     0.63480   0.69450   0.59950   0.00000  Uiso   1.00
H4209  H     0.70235   0.50065   0.66700   0.00000  Uiso   1.00
H4210  H     0.67757   0.50310   0.67325   0.00000  Uiso   1.00
H4211  H     0.65560   0.74150   0.69100   0.00000  Uiso   1.00
H4212  H     0.65185   0.65225   0.56825   0.00000  Uiso   1.00
C4213  C     0.57020   0.59550   0.64950   0.00000  Uiso   1.00
C4214  C     0.55610   0.59475   0.65350   0.00000  Uiso   1.00
C4215  C     0.54735   0.56150   0.62900   0.00000  Uiso   1.00
C4216  C     0.53230   0.57175   0.62625   0.00000  Uiso   1.00
C4217  C     0.52500   0.59650   0.66000   0.00000  Uiso   1.00
C4218  C     0.52300   0.55300   0.59200   0.00000  Uiso   1.00
N4219  N     0.51098   0.59500   0.65025   0.00000  Uiso   1.00
N4220  N     0.50980   0.56950   0.59950   0.00000  Uiso   1.00
H4221  H     0.57735   0.62565   0.66700   0.00000  Uiso   1.00
H4222  H     0.55258   0.62810   0.67325   0.00000  Uiso   1.00
H4223  H     0.53060   0.61650   0.69100   0.00000  Uiso   1.00
H4224  H     0.52685   0.52725   0.56825   0.00000  Uiso   1.00
C4225  C     0.55480   0.72050   0.72550   0.00000  Uiso   1.00
C4226  C     0.56890   0.71975   0.72150   0.00000  Uiso   1.00
C4227  C     0.57765   0.68650   0.74600   0.00000  Uiso   1.00
C4228  C     0.59270   0.69675   0.74875   0.00000  Uiso   1.00
C4229  C     0.60000   0.72150   0.71500   0.00000  Uiso   1.00
C4230  C     0.60200   0.67800   0.53300   0.00000  Uiso   1.00
N4231  N     0.61402   0.72000   0.72475   0.00000  Uiso   1.00
N4232  N     0.61520   0.69450   0.52550   0.00000  Uiso   1.00
H4233  H     0.54765   0.50065   0.70800   0.00000  Uiso   1.00
H4234  H     0.57243   0.50310   0.70175   0.00000  Uiso   1.00
H4235  H     0.59440   0.74150   0.68400   0.00000  Uiso   1.00
H4236  H     0.59815   0.65225   0.55675   0.00000  Uiso   1.00
C4237  C     0.67980   0.59550   0.72550   0.00000  Uiso   1.00
C4238  C     0.69390   0.59475   0.72150   0.00000  Uiso   1.00
C4239  C     0.70265   0.56150   0.74600   0.00000  Uiso   1.00
C4240  C     0.71770   0.57175   0.74875   0.00000  Uiso   1.00
C4241  C     0.72500   0.59650   0.71500   0.00000  Uiso   1.00
C4242  C     0.72700   0.55300   0.53300   0.00000  Uiso   1.00
N4243  N     0.73902   0.59500   0.72475   0.00000  Uiso   1.00
N4244  N     0.74020   0.56950   0.52550   0.00000  Uiso   1.00
H4245  H     0.67265   0.62565   0.70800   0.00000  Uiso   1.00
H4246  H     0.69742   0.62810   0.70175   0.00000  Uiso   1.00
H4247  H     0.71940   0.61650   0.68400   0.00000  Uiso   1.00
H4248  H     0.72315   0.52725   0.55675   0.00000  Uiso   1.00
C4249  C     0.55480   0.52950   0.60050   0.00000  Uiso   1.00
C4250  C     0.56890   0.53025   0.59650   0.00000  Uiso   1.00
C4251  C     0.57765   0.56350   0.62100   0.00000  Uiso   1.00
C4252  C     0.59270   0.55325   0.62375   0.00000  Uiso   1.00
C4253  C     0.60000   0.52850   0.59000   0.00000  Uiso   1.00
C4254  C     0.60200   0.57200   0.65800   0.00000  Uiso   1.00
N4255  N     0.61402   0.53000   0.59975   0.00000  Uiso   1.00
N4256  N     0.61520   0.55550   0.65050   0.00000  Uiso   1.00
H4257  H     0.54765   0.74935   0.58300   0.00000  Uiso   1.00
H4258  H     0.57243   0.74690   0.57675   0.00000  Uiso   1.00
H4259  H     0.59440   0.50850   0.55900   0.00000  Uiso   1.00
H4260  H     0.59815   0.59775   0.68175   0.00000  Uiso   1.00
C4261  C     0.67980   0.65450   0.60050   0.00000  Uiso   1.00
C4262  C     0.69390   0.65525   0.59650   0.00000  Uiso   1.00
C4263  C     0.70265   0.68850   0.62100   0.00000  Uiso   1.00
C4264  C     0.71770   0.67825   0.62375   0.00000  Uiso   1.00
C4265  C     0.72500   0.65350   0.59000   0.00000  Uiso   1.00
C4266  C     0.72700   0.69700   0.65800   0.00000  Uiso   1.00
N4267  N     0.73902   0.65500   0.59975   0.00000  Uiso   1.00
N4268  N     0.74020   0.68050   0.65050   0.00000  Uiso   1.00
H4269  H     0.67265   0.62435   0.58300   0.00000  Uiso   1.00
H4270  H     0.69742   0.62190   0.57675   0.00000  Uiso   1.00
H4271  H     0.71940   0.63350   0.55900   0.00000  Uiso   1.00
H4272  H     0.72315   0.72275   0.68175   0.00000  Uiso   1.00
C4273  C     0.69520   0.52950   0.52450   0.00000  Uiso   1.00
C4274  C     0.68110   0.53025   0.52850   0.00000  Uiso   1.00
C4275  C     0.67235   0.56350   0.50400   0.00000  Uiso   1.00
C4276  C     0.65730   0.55325   0.50125   0.00000  Uiso   1.00
C4277  C     0.65000   0.52850   0.53500   0.00000  Uiso   1.00
C4278  C     0.64800   0.57200   0.71700   0.00000  Uiso   1.00
N4279  N     0.63597   0.53000   0.52525   0.00000  Uiso   1.00
N4280  N     0.63480   0.55550   0.72450   0.00000  Uiso   1.00
H4281  H     0.70235   0.74935   0.54200   0.00000  Uiso   1.00
H4282  H     0.67757   0.74690   0.54825   0.00000  Uiso   1.00
H4283  H     0.65560   0.50850   0.56600   0.00000  Uiso   1.00
H4284  H     0.65185   0.59775   0.69325   0.00000  Uiso   1.00
C4285  C     0.57020   0.65450   0.52450   0.00000  Uiso   1.00
C4286  C     0.55610   0.65525   0.52850   0.00000  Uiso   1.00
C4287  C     0.54735   0.68850   0.50400   0.00000  Uiso   1.00
C4288  C     0.53230   0.67825   0.50125   0.00000  Uiso   1.00
C4289  C     0.52500   0.65350   0.53500   0.00000  Uiso   1.00
C4290  C     0.52300   0.69700   0.71700   0.00000  Uiso   1.00
N4291  N     0.51098   0.65500   0.52525   0.00000  Uiso   1.00
N4292  N     0.50980   0.68050   0.72450   0.00000  Uiso   1.00
H4293  H     0.57735   0.62435   0.54200   0.00000  Uiso   1.00
H4294  H     0.55258   0.62190   0.54825   0.00000  Uiso   1.00
H4295  H     0.53060   0.63350   0.56600   0.00000  Uiso   1.00
H4296  H     0.52685   0.72275   0.69325   0.00000  Uiso   1.00
Co4297 Co    0.62500   0.50860   0.68750   0.00000  Uiso   1.00
Co4298 Co    0.50000   0.63360   0.68750   0.00000  Uiso   1.00
Co4299 Co    0.62500   0.74140   0.56250   0.00000  Uiso   1.00
Co4300 Co    0.50000   0.61640   0.56250   0.00000  Uiso   1.00
C4301  C     0.94520   0.72050   0.64950   0.00000  Uiso   1.00
C4302  C     0.93110   0.71975   0.65350   0.00000  Uiso   1.00
C4303  C     0.92235   0.68650   0.62900   0.00000  Uiso   1.00
C4304  C     0.90730   0.69675   0.62625   0.00000  Uiso   1.00
C4305  C     0.90000   0.72150   0.66000   0.00000  Uiso   1.00
C4306  C     0.89800   0.67800   0.59200   0.00000  Uiso   1.00
N4307  N     0.88597   0.72000   0.65025   0.00000  Uiso   1.00
N4308  N     0.88480   0.69450   0.59950   0.00000  Uiso   1.00
H4309  H     0.95235   0.50065   0.66700   0.00000  Uiso   1.00
H4310  H     0.92757   0.50310   0.67325   0.00000  Uiso   1.00
H4311  H     0.90560   0.74150   0.69100   0.00000  Uiso   1.00
H4312  H     0.90185   0.65225   0.56825   0.00000  Uiso   1.00
C4313  C     0.82020   0.59550   0.64950   0.00000  Uiso   1.00
C4314  C     0.80610   0.59475   0.65350   0.00000  Uiso   1.00
C4315  C     0.79735   0.56150   0.62900   0.00000  Uiso   1.00
C4316  C     0.78230   0.57175   0.62625   0.00000  Uiso   1.00
C4317  C     0.77500   0.59650   0.66000   0.00000  Uiso   1.00
C4318  C     0.77300   0.55300   0.59200   0.00000  Uiso   1.00
N4319  N     0.76097   0.59500   0.65025   0.00000  Uiso   1.00
N4320  N     0.75980   0.56950   0.59950   0.00000  Uiso   1.00
H4321  H     0.82735   0.62565   0.66700   0.00000  Uiso   1.00
H4322  H     0.80257   0.62810   0.67325   0.00000  Uiso   1.00
H4323  H     0.78060   0.61650   0.69100   0.00000  Uiso   1.00
H4324  H     0.77685   0.52725   0.56825   0.00000  Uiso   1.00
C4325  C     0.80480   0.72050   0.72550   0.00000  Uiso   1.00
C4326  C     0.81890   0.71975   0.72150   0.00000  Uiso   1.00
C4327  C     0.82765   0.68650   0.74600   0.00000  Uiso   1.00
C4328  C     0.84270   0.69675   0.74875   0.00000  Uiso   1.00
C4329  C     0.85000   0.72150   0.71500   0.00000  Uiso   1.00
C4330  C     0.85200   0.67800   0.53300   0.00000  Uiso   1.00
N4331  N     0.86402   0.72000   0.72475   0.00000  Uiso   1.00
N4332  N     0.86520   0.69450   0.52550   0.00000  Uiso   1.00
H4333  H     0.79765   0.50065   0.70800   0.00000  Uiso   1.00
H4334  H     0.82242   0.50310   0.70175   0.00000  Uiso   1.00
H4335  H     0.84440   0.74150   0.68400   0.00000  Uiso   1.00
H4336  H     0.84815   0.65225   0.55675   0.00000  Uiso   1.00
C4337  C     0.92980   0.59550   0.72550   0.00000  Uiso   1.00
C4338  C     0.94390   0.59475   0.72150   0.00000  Uiso   1.00
C4339  C     0.95265   0.56150   0.74600   0.00000  Uiso   1.00
C4340  C     0.96770   0.57175   0.74875   0.00000  Uiso   1.00
C4341  C     0.97500   0.59650   0.71500   0.00000  Uiso   1.00
C4342  C     0.97700   0.55300   0.53300   0.00000  Uiso   1.00
N4343  N     0.98902   0.59500   0.72475   0.00000  Uiso   1.00
N4344  N     0.99020   0.56950   0.52550   0.00000  Uiso   1.00
H4345  H     0.92265   0.62565   0.70800   0.00000  Uiso   1.00
H4346  H     0.94742   0.62810   0.70175   0.00000  Uiso   1.00
H4347  H     0.96940   0.61650   0.68400   0.00000  Uiso   1.00
H4348  H     0.97315   0.52725   0.55675   0.00000  Uiso   1.00
C4349  C     0.80480   0.52950   0.60050   0.00000  Uiso   1.00
C4350  C     0.81890   0.53025   0.59650   0.00000  Uiso   1.00
C4351  C     0.82765   0.56350   0.62100   0.00000  Uiso   1.00
C4352  C     0.84270   0.55325   0.62375   0.00000  Uiso   1.00
C4353  C     0.85000   0.52850   0.59000   0.00000  Uiso   1.00
C4354  C     0.85200   0.57200   0.65800   0.00000  Uiso   1.00
N4355  N     0.86402   0.53000   0.59975   0.00000  Uiso   1.00
N4356  N     0.86520   0.55550   0.65050   0.00000  Uiso   1.00
H4357  H     0.79765   0.74935   0.58300   0.00000  Uiso   1.00
H4358  H     0.82242   0.74690   0.57675   0.00000  Uiso   1.00
H4359  H     0.84440   0.50850   0.55900   0.00000  Uiso   1.00
H4360  H     0.84815   0.59775   0.68175   0.00000  Uiso   1.00
C4361  C     0.92980   0.65450   0.60050   0.00000  Uiso   1.00
C4362  C     0.94390   0.65525   0.59650   0.00000  Uiso   1.00
C4363  C     0.95265   0.68850   0.62100   0.00000  Uiso   1.00
C4364  C     0.96770   0.67825   0.62375   0.00000  Uiso   1.00
C4365  C     0.97500   0.65350   0.59000   0.00000  Uiso   1.00
C4366  C     0.97700   0.69700   0.65800   0.00000  Uiso   1.00
N4367  N     0.98902   0.65500   0.59975   0.00000  Uiso   1.00
N4368  N     0.99020   0.68050   0.65050   0.00000  Uiso   1.00
H4369  H     0.92265   0.62435   0.58300   0.00000  Uiso   1.00
H4370  H     0.94742   0.62190   0.57675   0.00000  Uiso   1.00
H4371  H     0.96940   0.63350   0.55900   0.00000  Uiso   1.00
H4372  H     0.97315   0.72275   0.68175   0.00000  Uiso   1.00
C4373  C     0.94520   0.52950   0.52450   0.00000  Uiso   1.00
C4374  C     0.93110   0.53025   0.52850   0.00000  Uiso   1.00
C4375  C     0.92235   0.56350   0.50400   0.00000  Uiso   1.00
C4376  C     0.90730   0.55325   0.50125   0.00000  Uiso   1.00
C4377  C     0.90000   0.52850   0.53500   0.00000  Uiso   1.00
C4378  C     0.89800   0.57200   0.71700   0.00000  Uiso   1.00
N4379  N     0.88597   0.53000   0.52525   0.00000  Uiso   1.00
N4380  N     0.88480   0.55550   0.72450   0.00000  Uiso   1.00
H4381  H     0.95235   0.74935   0.54200   0.00000  Uiso   1.00
H4382  H     0.92757   0.74690   0.54825   0.00000  Uiso   1.00
H4383  H     0.90560   0.50850   0.56600   0.00000  Uiso   1.00
H4384  H     0.90185   0.59775   0.69325   0.00000  Uiso   1.00
C4385  C     0.82020   0.65450   0.52450   0.00000  Uiso   1.00
C4386  C     0.80610   0.65525   0.52850   0.00000  Uiso   1.00
C4387  C     0.79735   0.68850   0.50400   0.00000  Uiso   1.00
C4388  C     0.78230   0.67825   0.50125   0.00000  Uiso   1.00
C4389  C     0.77500   0.65350   0.53500   0.00000  Uiso   1.00
C4390  C     0.77300   0.69700   0.71700   0.00000  Uiso   1.00
N4391  N     0.76097   0.65500   0.52525   0.00000  Uiso   1.00
N4392  N     0.75980   0.68050   0.72450   0.00000  Uiso   1.00
H4393  H     0.82735   0.62435   0.54200   0.00000  Uiso   1.00
H4394  H     0.80257   0.62190   0.54825   0.00000  Uiso   1.00
H4395  H     0.78060   0.63350   0.56600   0.00000  Uiso   1.00
H4396  H     0.77685   0.72275   0.69325   0.00000  Uiso   1.00
Co4397 Co    0.87500   0.50860   0.68750   0.00000  Uiso   1.00
Co4398 Co    0.75000   0.63360   0.68750   0.00000  Uiso   1.00
Co4399 Co    0.87500   0.74140   0.56250   0.00000  Uiso   1.00
Co4400 Co    0.75000   0.61640   0.56250   0.00000  Uiso   1.00
C4401  C     0.19520   0.97050   0.64950   0.00000  Uiso   1.00
C4402  C     0.18110   0.96975   0.65350   0.00000  Uiso   1.00
C4403  C     0.17235   0.93650   0.62900   0.00000  Uiso   1.00
C4404  C     0.15730   0.94675   0.62625   0.00000  Uiso   1.00
C4405  C     0.15000   0.97150   0.66000   0.00000  Uiso   1.00
C4406  C     0.14800   0.92800   0.59200   0.00000  Uiso   1.00
N4407  N     0.13598   0.97000   0.65025   0.00000  Uiso   1.00
N4408  N     0.13480   0.94450   0.59950   0.00000  Uiso   1.00
H4409  H     0.20235   0.75065   0.66700   0.00000  Uiso   1.00
H4410  H     0.17758   0.75310   0.67325   0.00000  Uiso   1.00
H4411  H     0.15560   0.99150   0.69100   0.00000  Uiso   1.00
H4412  H     0.15185   0.90225   0.56825   0.00000  Uiso   1.00
C4413  C     0.07020   0.84550   0.64950   0.00000  Uiso   1.00
C4414  C     0.05610   0.84475   0.65350   0.00000  Uiso   1.00
C4415  C     0.04735   0.81150   0.62900   0.00000  Uiso   1.00
C4416  C     0.03230   0.82175   0.62625   0.00000  Uiso   1.00
C4417  C     0.02500   0.84650   0.66000   0.00000  Uiso   1.00
C4418  C     0.02300   0.80300   0.59200   0.00000  Uiso   1.00
N4419  N     0.01098   0.84500   0.65025   0.00000  Uiso   1.00
N4420  N     0.00980   0.81950   0.59950   0.00000  Uiso   1.00
H4421  H     0.07735   0.87565   0.66700   0.00000  Uiso   1.00
H4422  H     0.05258   0.87810   0.67325   0.00000  Uiso   1.00
H4423  H     0.03060   0.86650   0.69100   0.00000  Uiso   1.00
H4424  H     0.02685   0.77725   0.56825   0.00000  Uiso   1.00
C4425  C     0.05480   0.97050   0.72550   0.00000  Uiso   1.00
C4426  C     0.06890   0.96975   0.72150   0.00000  Uiso   1.00
C4427  C     0.07765   0.93650   0.74600   0.00000  Uiso   1.00
C4428  C     0.09270   0.94675   0.74875   0.00000  Uiso   1.00
C4429  C     0.10000   0.97150   0.71500   0.00000  Uiso   1.00
C4430  C     0.10200   0.92800   0.53300   0.00000  Uiso   1.00
N4431  N     0.11403   0.97000   0.72475   0.00000  Uiso   1.00
N4432  N     0.11520   0.94450   0.52550   0.00000  Uiso   1.00
H4433  H     0.04765   0.75065   0.70800   0.00000  Uiso   1.00
H4434  H     0.07243   0.75310   0.70175   0.00000  Uiso   1.00
H4435  H     0.09440   0.99150   0.68400   0.00000  Uiso   1.00
H4436  H     0.09815   0.90225   0.55675   0.00000  Uiso   1.00
C4437  C     0.17980   0.84550   0.72550   0.00000  Uiso   1.00
C4438  C     0.19390   0.84475   0.72150   0.00000  Uiso   1.00
C4439  C     0.20265   0.81150   0.74600   0.00000  Uiso   1.00
C4440  C     0.21770   0.82175   0.74875   0.00000  Uiso   1.00
C4441  C     0.22500   0.84650   0.71500   0.00000  Uiso   1.00
C4442  C     0.22700   0.80300   0.53300   0.00000  Uiso   1.00
N4443  N     0.23902   0.84500   0.72475   0.00000  Uiso   1.00
N4444  N     0.24020   0.81950   0.52550   0.00000  Uiso   1.00
H4445  H     0.17265   0.87565   0.70800   0.00000  Uiso   1.00
H4446  H     0.19742   0.87810   0.70175   0.00000  Uiso   1.00
H4447  H     0.21940   0.86650   0.68400   0.00000  Uiso   1.00
H4448  H     0.22315   0.77725   0.55675   0.00000  Uiso   1.00
C4449  C     0.05480   0.77950   0.60050   0.00000  Uiso   1.00
C4450  C     0.06890   0.78025   0.59650   0.00000  Uiso   1.00
C4451  C     0.07765   0.81350   0.62100   0.00000  Uiso   1.00
C4452  C     0.09270   0.80325   0.62375   0.00000  Uiso   1.00
C4453  C     0.10000   0.77850   0.59000   0.00000  Uiso   1.00
C4454  C     0.10200   0.82200   0.65800   0.00000  Uiso   1.00
N4455  N     0.11403   0.78000   0.59975   0.00000  Uiso   1.00
N4456  N     0.11520   0.80550   0.65050   0.00000  Uiso   1.00
H4457  H     0.04765   0.99935   0.58300   0.00000  Uiso   1.00
H4458  H     0.07243   0.99690   0.57675   0.00000  Uiso   1.00
H4459  H     0.09440   0.75850   0.55900   0.00000  Uiso   1.00
H4460  H     0.09815   0.84775   0.68175   0.00000  Uiso   1.00
C4461  C     0.17980   0.90450   0.60050   0.00000  Uiso   1.00
C4462  C     0.19390   0.90525   0.59650   0.00000  Uiso   1.00
C4463  C     0.20265   0.93850   0.62100   0.00000  Uiso   1.00
C4464  C     0.21770   0.92825   0.62375   0.00000  Uiso   1.00
C4465  C     0.22500   0.90350   0.59000   0.00000  Uiso   1.00
C4466  C     0.22700   0.94700   0.65800   0.00000  Uiso   1.00
N4467  N     0.23902   0.90500   0.59975   0.00000  Uiso   1.00
N4468  N     0.24020   0.93050   0.65050   0.00000  Uiso   1.00
H4469  H     0.17265   0.87435   0.58300   0.00000  Uiso   1.00
H4470  H     0.19742   0.87190   0.57675   0.00000  Uiso   1.00
H4471  H     0.21940   0.88350   0.55900   0.00000  Uiso   1.00
H4472  H     0.22315   0.97275   0.68175   0.00000  Uiso   1.00
C4473  C     0.19520   0.77950   0.52450   0.00000  Uiso   1.00
C4474  C     0.18110   0.78025   0.52850   0.00000  Uiso   1.00
C4475  C     0.17235   0.81350   0.50400   0.00000  Uiso   1.00
C4476  C     0.15730   0.80325   0.50125   0.00000  Uiso   1.00
C4477  C     0.15000   0.77850   0.53500   0.00000  Uiso   1.00
C4478  C     0.14800   0.82200   0.71700   0.00000  Uiso   1.00
N4479  N     0.13598   0.78000   0.52525   0.00000  Uiso   1.00
N4480  N     0.13480   0.80550   0.72450   0.00000  Uiso   1.00
H4481  H     0.20235   0.99935   0.54200   0.00000  Uiso   1.00
H4482  H     0.17758   0.99690   0.54825   0.00000  Uiso   1.00
H4483  H     0.15560   0.75850   0.56600   0.00000  Uiso   1.00
H4484  H     0.15185   0.84775   0.69325   0.00000  Uiso   1.00
C4485  C     0.07020   0.90450   0.52450   0.00000  Uiso   1.00
C4486  C     0.05610   0.90525   0.52850   0.00000  Uiso   1.00
C4487  C     0.04735   0.93850   0.50400   0.00000  Uiso   1.00
C4488  C     0.03230   0.92825   0.50125   0.00000  Uiso   1.00
C4489  C     0.02500   0.90350   0.53500   0.00000  Uiso   1.00
C4490  C     0.02300   0.94700   0.71700   0.00000  Uiso   1.00
N4491  N     0.01098   0.90500   0.52525   0.00000  Uiso   1.00
N4492  N     0.00980   0.93050   0.72450   0.00000  Uiso   1.00
H4493  H     0.07735   0.87435   0.54200   0.00000  Uiso   1.00
H4494  H     0.05258   0.87190   0.54825   0.00000  Uiso   1.00
H4495  H     0.03060   0.88350   0.56600   0.00000  Uiso   1.00
H4496  H     0.02685   0.97275   0.69325   0.00000  Uiso   1.00
Co4497 Co    0.12500   0.75860   0.68750   0.00000  Uiso   1.00
Co4498 Co    0.00000   0.88360   0.68750   0.00000  Uiso   1.00
Co4499 Co    0.12500   0.99140   0.56250   0.00000  Uiso   1.00
Co4500 Co    0.00000   0.86640   0.56250   0.00000  Uiso   1.00
C4501  C     0.44520   0.97050   0.64950   0.00000  Uiso   1.00
C4502  C     0.43110   0.96975   0.65350   0.00000  Uiso   1.00
C4503  C     0.42235   0.93650   0.62900   0.00000  Uiso   1.00
C4504  C     0.40730   0.94675   0.62625   0.00000  Uiso   1.00
C4505  C     0.40000   0.97150   0.66000   0.00000  Uiso   1.00
C4506  C     0.39800   0.92800   0.59200   0.00000  Uiso   1.00
N4507  N     0.38597   0.97000   0.65025   0.00000  Uiso   1.00
N4508  N     0.38480   0.94450   0.59950   0.00000  Uiso   1.00
H4509  H     0.45235   0.75065   0.66700   0.00000  Uiso   1.00
H4510  H     0.42757   0.75310   0.67325   0.00000  Uiso   1.00
H4511  H     0.40560   0.99150   0.69100   0.00000  Uiso   1.00
H4512  H     0.40185   0.90225   0.56825   0.00000  Uiso   1.00
C4513  C     0.32020   0.84550   0.64950   0.00000  Uiso   1.00
C4514  C     0.30610   0.84475   0.65350   0.00000  Uiso   1.00
C4515  C     0.29735   0.81150   0.62900   0.00000  Uiso   1.00
C4516  C     0.28230   0.82175   0.62625   0.00000  Uiso   1.00
C4517  C     0.27500   0.84650   0.66000   0.00000  Uiso   1.00
C4518  C     0.27300   0.80300   0.59200   0.00000  Uiso   1.00
N4519  N     0.26098   0.84500   0.65025   0.00000  Uiso   1.00
N4520  N     0.25980   0.81950   0.59950   0.00000  Uiso   1.00
H4521  H     0.32735   0.87565   0.66700   0.00000  Uiso   1.00
H4522  H     0.30258   0.87810   0.67325   0.00000  Uiso   1.00
H4523  H     0.28060   0.86650   0.69100   0.00000  Uiso   1.00
H4524  H     0.27685   0.77725   0.56825   0.00000  Uiso   1.00
C4525  C     0.30480   0.97050   0.72550   0.00000  Uiso   1.00
C4526  C     0.31890   0.96975   0.72150   0.00000  Uiso   1.00
C4527  C     0.32765   0.93650   0.74600   0.00000  Uiso   1.00
C4528  C     0.34270   0.94675   0.74875   0.00000  Uiso   1.00
C4529  C     0.35000   0.97150   0.71500   0.00000  Uiso   1.00
C4530  C     0.35200   0.92800   0.53300   0.00000  Uiso   1.00
N4531  N     0.36402   0.97000   0.72475   0.00000  Uiso   1.00
N4532  N     0.36520   0.94450   0.52550   0.00000  Uiso   1.00
H4533  H     0.29765   0.75065   0.70800   0.00000  Uiso   1.00
H4534  H     0.32243   0.75310   0.70175   0.00000  Uiso   1.00
H4535  H     0.34440   0.99150   0.68400   0.00000  Uiso   1.00
H4536  H     0.34815   0.90225   0.55675   0.00000  Uiso   1.00
C4537  C     0.42980   0.84550   0.72550   0.00000  Uiso   1.00
C4538  C     0.44390   0.84475   0.72150   0.00000  Uiso   1.00
C4539  C     0.45265   0.81150   0.74600   0.00000  Uiso   1.00
C4540  C     0.46770   0.82175   0.74875   0.00000  Uiso   1.00
C4541  C     0.47500   0.84650   0.71500   0.00000  Uiso   1.00
C4542  C     0.47700   0.80300   0.53300   0.00000  Uiso   1.00
N4543  N     0.48902   0.84500   0.72475   0.00000  Uiso   1.00
N4544  N     0.49020   0.81950   0.52550   0.00000  Uiso   1.00
H4545  H     0.42265   0.87565   0.70800   0.00000  Uiso   1.00
H4546  H     0.44742   0.87810   0.70175   0.00000  Uiso   1.00
H4547  H     0.46940   0.86650   0.68400   0.00000  Uiso   1.00
H4548  H     0.47315   0.77725   0.55675   0.00000  Uiso   1.00
C4549  C     0.30480   0.77950   0.60050   0.00000  Uiso   1.00
C4550  C     0.31890   0.78025   0.59650   0.00000  Uiso   1.00
C4551  C     0.32765   0.81350   0.62100   0.00000  Uiso   1.00
C4552  C     0.34270   0.80325   0.62375   0.00000  Uiso   1.00
C4553  C     0.35000   0.77850   0.59000   0.00000  Uiso   1.00
C4554  C     0.35200   0.82200   0.65800   0.00000  Uiso   1.00
N4555  N     0.36402   0.78000   0.59975   0.00000  Uiso   1.00
N4556  N     0.36520   0.80550   0.65050   0.00000  Uiso   1.00
H4557  H     0.29765   0.99935   0.58300   0.00000  Uiso   1.00
H4558  H     0.32243   0.99690   0.57675   0.00000  Uiso   1.00
H4559  H     0.34440   0.75850   0.55900   0.00000  Uiso   1.00
H4560  H     0.34815   0.84775   0.68175   0.00000  Uiso   1.00
C4561  C     0.42980   0.90450   0.60050   0.00000  Uiso   1.00
C4562  C     0.44390   0.90525   0.59650   0.00000  Uiso   1.00
C4563  C     0.45265   0.93850   0.62100   0.00000  Uiso   1.00
C4564  C     0.46770   0.92825   0.62375   0.00000  Uiso   1.00
C4565  C     0.47500   0.90350   0.59000   0.00000  Uiso   1.00
C4566  C     0.47700   0.94700   0.65800   0.00000  Uiso   1.00
N4567  N     0.48902   0.90500   0.59975   0.00000  Uiso   1.00
N4568  N     0.49020   0.93050   0.65050   0.00000  Uiso   1.00
H4569  H     0.42265   0.87435   0.58300   0.00000  Uiso   1.00
H4570  H     0.44742   0.87190   0.57675   0.00000  Uiso   1.00
H4571  H     0.46940   0.88350   0.55900   0.00000  Uiso   1.00
H4572  H     0.47315   0.97275   0.68175   0.00000  Uiso   1.00
C4573  C     0.44520   0.77950   0.52450   0.00000  Uiso   1.00
C4574  C     0.43110   0.78025   0.52850   0.00000  Uiso   1.00
C4575  C     0.42235   0.81350   0.50400   0.00000  Uiso   1.00
C4576  C     0.40730   0.80325   0.50125   0.00000  Uiso   1.00
C4577  C     0.40000   0.77850   0.53500   0.00000  Uiso   1.00
C4578  C     0.39800   0.82200   0.71700   0.00000  Uiso   1.00
N4579  N     0.38597   0.78000   0.52525   0.00000  Uiso   1.00
N4580  N     0.38480   0.80550   0.72450   0.00000  Uiso   1.00
H4581  H     0.45235   0.99935   0.54200   0.00000  Uiso   1.00
H4582  H     0.42757   0.99690   0.54825   0.00000  Uiso   1.00
H4583  H     0.40560   0.75850   0.56600   0.00000  Uiso   1.00
H4584  H     0.40185   0.84775   0.69325   0.00000  Uiso   1.00
C4585  C     0.32020   0.90450   0.52450   0.00000  Uiso   1.00
C4586  C     0.30610   0.90525   0.52850   0.00000  Uiso   1.00
C4587  C     0.29735   0.93850   0.50400   0.00000  Uiso   1.00
C4588  C     0.28230   0.92825   0.50125   0.00000  Uiso   1.00
C4589  C     0.27500   0.90350   0.53500   0.00000  Uiso   1.00
C4590  C     0.27300   0.94700   0.71700   0.00000  Uiso   1.00
N4591  N     0.26098   0.90500   0.52525   0.00000  Uiso   1.00
N4592  N     0.25980   0.93050   0.72450   0.00000  Uiso   1.00
H4593  H     0.32735   0.87435   0.54200   0.00000  Uiso   1.00
H4594  H     0.30258   0.87190   0.54825   0.00000  Uiso   1.00
H4595  H     0.28060   0.88350   0.56600   0.00000  Uiso   1.00
H4596  H     0.27685   0.97275   0.69325   0.00000  Uiso   1.00
Co4597 Co    0.37500   0.75860   0.68750   0.00000  Uiso   1.00
Co4598 Co    0.25000   0.88360   0.68750   0.00000  Uiso   1.00
Co4599 Co    0.37500   0.99140   0.56250   0.00000  Uiso   1.00
Co4600 Co    0.25000   0.86640   0.56250   0.00000  Uiso   1.00
C4601  C     0.69520   0.97050   0.64950   0.00000  Uiso   1.00
C4602  C     0.68110   0.96975   0.65350   0.00000  Uiso   1.00
C4603  C     0.67235   0.93650   0.62900   0.00000  Uiso   1.00
C4604  C     0.65730   0.94675   0.62625   0.00000  Uiso   1.00
C4605  C     0.65000   0.97150   0.66000   0.00000  Uiso   1.00
C4606  C     0.64800   0.92800   0.59200   0.00000  Uiso   1.00
N4607  N     0.63597   0.97000   0.65025   0.00000  Uiso   1.00
N4608  N     0.63480   0.94450   0.59950   0.00000  Uiso   1.00
H4609  H     0.70235   0.75065   0.66700   0.00000  Uiso   1.00
H4610  H     0.67757   0.75310   0.67325   0.00000  Uiso   1.00
H4611  H     0.65560   0.99150   0.69100   0.00000  Uiso   1.00
H4612  H     0.65185   0.90225   0.56825   0.00000  Uiso   1.00
C4613  C     0.57020   0.84550   0.64950   0.00000  Uiso   1.00
C4614  C     0.55610   0.84475   0.65350   0.00000  Uiso   1.00
C4615  C     0.54735   0.81150   0.62900   0.00000  Uiso   1.00
C4616  C     0.53230   0.82175   0.62625   0.00000  Uiso   1.00
C4617  C     0.52500   0.84650   0.66000   0.00000  Uiso   1.00
C4618  C     0.52300   0.80300   0.59200   0.00000  Uiso   1.00
N4619  N     0.51098   0.84500   0.65025   0.00000  Uiso   1.00
N4620  N     0.50980   0.81950   0.59950   0.00000  Uiso   1.00
H4621  H     0.57735   0.87565   0.66700   0.00000  Uiso   1.00
H4622  H     0.55258   0.87810   0.67325   0.00000  Uiso   1.00
H4623  H     0.53060   0.86650   0.69100   0.00000  Uiso   1.00
H4624  H     0.52685   0.77725   0.56825   0.00000  Uiso   1.00
C4625  C     0.55480   0.97050   0.72550   0.00000  Uiso   1.00
C4626  C     0.56890   0.96975   0.72150   0.00000  Uiso   1.00
C4627  C     0.57765   0.93650   0.74600   0.00000  Uiso   1.00
C4628  C     0.59270   0.94675   0.74875   0.00000  Uiso   1.00
C4629  C     0.60000   0.97150   0.71500   0.00000  Uiso   1.00
C4630  C     0.60200   0.92800   0.53300   0.00000  Uiso   1.00
N4631  N     0.61402   0.97000   0.72475   0.00000  Uiso   1.00
N4632  N     0.61520   0.94450   0.52550   0.00000  Uiso   1.00
H4633  H     0.54765   0.75065   0.70800   0.00000  Uiso   1.00
H4634  H     0.57243   0.75310   0.70175   0.00000  Uiso   1.00
H4635  H     0.59440   0.99150   0.68400   0.00000  Uiso   1.00
H4636  H     0.59815   0.90225   0.55675   0.00000  Uiso   1.00
C4637  C     0.67980   0.84550   0.72550   0.00000  Uiso   1.00
C4638  C     0.69390   0.84475   0.72150   0.00000  Uiso   1.00
C4639  C     0.70265   0.81150   0.74600   0.00000  Uiso   1.00
C4640  C     0.71770   0.82175   0.74875   0.00000  Uiso   1.00
C4641  C     0.72500   0.84650   0.71500   0.00000  Uiso   1.00
C4642  C     0.72700   0.80300   0.53300   0.00000  Uiso   1.00
N4643  N     0.73902   0.84500   0.72475   0.00000  Uiso   1.00
N4644  N     0.74020   0.81950   0.52550   0.00000  Uiso   1.00
H4645  H     0.67265   0.87565   0.70800   0.00000  Uiso   1.00
H4646  H     0.69742   0.87810   0.70175   0.00000  Uiso   1.00
H4647  H     0.71940   0.86650   0.68400   0.00000  Uiso   1.00
H4648  H     0.72315   0.77725   0.55675   0.00000  Uiso   1.00
C4649  C     0.55480   0.77950   0.60050   0.00000  Uiso   1.00
C4650  C     0.56890   0.78025   0.59650   0.00000  Uiso   1.00
C4651  C     0.57765   0.81350   0.62100   0.00000  Uiso   1.00
C4652  C     0.59270   0.80325   0.62375   0.00000  Uiso   1.00
C4653  C     0.60000   0.77850   0.59000   0.00000  Uiso   1.00
C4654  C     0.60200   0.82200   0.65800   0.00000  Uiso   1.00
N4655  N     0.61402   0.78000   0.59975   0.00000  Uiso   1.00
N4656  N     0.61520   0.80550   0.65050   0.00000  Uiso   1.00
H4657  H     0.54765   0.99935   0.58300   0.00000  Uiso   1.00
H4658  H     0.57243   0.99690   0.57675   0.00000  Uiso   1.00
H4659  H     0.59440   0.75850   0.55900   0.00000  Uiso   1.00
H4660  H     0.59815   0.84775   0.68175   0.00000  Uiso   1.00
C4661  C     0.67980   0.90450   0.60050   0.00000  Uiso   1.00
C4662  C     0.69390   0.90525   0.59650   0.00000  Uiso   1.00
C4663  C     0.70265   0.93850   0.62100   0.00000  Uiso   1.00
C4664  C     0.71770   0.92825   0.62375   0.00000  Uiso   1.00
C4665  C     0.72500   0.90350   0.59000   0.00000  Uiso   1.00
C4666  C     0.72700   0.94700   0.65800   0.00000  Uiso   1.00
N4667  N     0.73902   0.90500   0.59975   0.00000  Uiso   1.00
N4668  N     0.74020   0.93050   0.65050   0.00000  Uiso   1.00
H4669  H     0.67265   0.87435   0.58300   0.00000  Uiso   1.00
H4670  H     0.69742   0.87190   0.57675   0.00000  Uiso   1.00
H4671  H     0.71940   0.88350   0.55900   0.00000  Uiso   1.00
H4672  H     0.72315   0.97275   0.68175   0.00000  Uiso   1.00
C4673  C     0.69520   0.77950   0.52450   0.00000  Uiso   1.00
C4674  C     0.68110   0.78025   0.52850   0.00000  Uiso   1.00
C4675  C     0.67235   0.81350   0.50400   0.00000  Uiso   1.00
C4676  C     0.65730   0.80325   0.50125   0.00000  Uiso   1.00
C4677  C     0.65000   0.77850   0.53500   0.00000  Uiso   1.00
C4678  C     0.64800   0.82200   0.71700   0.00000  Uiso   1.00
N4679  N     0.63597   0.78000   0.52525   0.00000  Uiso   1.00
N4680  N     0.63480   0.80550   0.72450   0.00000  Uiso   1.00
H4681  H     0.70235   0.99935   0.54200   0.00000  Uiso   1.00
H4682  H     0.67757   0.99690   0.54825   0.00000  Uiso   1.00
H4683  H     0.65560   0.75850   0.56600   0.00000  Uiso   1.00
H4684  H     0.65185   0.84775   0.69325   0.00000  Uiso   1.00
C4685  C     0.57020   0.90450   0.52450   0.00000  Uiso   1.00
C4686  C     0.55610   0.90525   0.52850   0.00000  Uiso   1.00
C4687  C     0.54735   0.93850   0.50400   0.00000  Uiso   1.00
C4688  C     0.53230   0.92825   0.50125   0.00000  Uiso   1.00
C4689  C     0.52500   0.90350   0.53500   0.00000  Uiso   1.00
C4690  C     0.52300   0.94700   0.71700   0.00000  Uiso   1.00
N4691  N     0.51098   0.90500   0.52525   0.00000  Uiso   1.00
N4692  N     0.50980   0.93050   0.72450   0.00000  Uiso   1.00
H4693  H     0.57735   0.87435   0.54200   0.00000  Uiso   1.00
H4694  H     0.55258   0.87190   0.54825   0.00000  Uiso   1.00
H4695  H     0.53060   0.88350   0.56600   0.00000  Uiso   1.00
H4696  H     0.52685   0.97275   0.69325   0.00000  Uiso   1.00
Co4697 Co    0.62500   0.75860   0.68750   0.00000  Uiso   1.00
Co4698 Co    0.50000   0.88360   0.68750   0.00000  Uiso   1.00
Co4699 Co    0.62500   0.99140   0.56250   0.00000  Uiso   1.00
Co4700 Co    0.50000   0.86640   0.56250   0.00000  Uiso   1.00
C4701  C     0.94520   0.97050   0.64950   0.00000  Uiso   1.00
C4702  C     0.93110   0.96975   0.65350   0.00000  Uiso   1.00
C4703  C     0.92235   0.93650   0.62900   0.00000  Uiso   1.00
C4704  C     0.90730   0.94675   0.62625   0.00000  Uiso   1.00
C4705  C     0.90000   0.97150   0.66000   0.00000  Uiso   1.00
C4706  C     0.89800   0.92800   0.59200   0.00000  Uiso   1.00
N4707  N     0.88597   0.97000   0.65025   0.00000  Uiso   1.00
N4708  N     0.88480   0.94450   0.59950   0.00000  Uiso   1.00
H4709  H     0.95235   0.75065   0.66700   0.00000  Uiso   1.00
H4710  H     0.92757   0.75310   0.67325   0.00000  Uiso   1.00
H4711  H     0.90560   0.99150   0.69100   0.00000  Uiso   1.00
H4712  H     0.90185   0.90225   0.56825   0.00000  Uiso   1.00
C4713  C     0.82020   0.84550   0.64950   0.00000  Uiso   1.00
C4714  C     0.80610   0.84475   0.65350   0.00000  Uiso   1.00
C4715  C     0.79735   0.81150   0.62900   0.00000  Uiso   1.00
C4716  C     0.78230   0.82175   0.62625   0.00000  Uiso   1.00
C4717  C     0.77500   0.84650   0.66000   0.00000  Uiso   1.00
C4718  C     0.77300   0.80300   0.59200   0.00000  Uiso   1.00
N4719  N     0.76097   0.84500   0.65025   0.00000  Uiso   1.00
N4720  N     0.75980   0.81950   0.59950   0.00000  Uiso   1.00
H4721  H     0.82735   0.87565   0.66700   0.00000  Uiso   1.00
H4722  H     0.80257   0.87810   0.67325   0.00000  Uiso   1.00
H4723  H     0.78060   0.86650   0.69100   0.00000  Uiso   1.00
H4724  H     0.77685   0.77725   0.56825   0.00000  Uiso   1.00
C4725  C     0.80480   0.97050   0.72550   0.00000  Uiso   1.00
C4726  C     0.81890   0.96975   0.72150   0.00000  Uiso   1.00
C4727  C     0.82765   0.93650   0.74600   0.00000  Uiso   1.00
C4728  C     0.84270   0.94675   0.74875   0.00000  Uiso   1.00
C4729  C     0.85000   0.97150   0.71500   0.00000  Uiso   1.00
C4730  C     0.85200   0.92800   0.53300   0.00000  Uiso   1.00
N4731  N     0.86402   0.97000   0.72475   0.00000  Uiso   1.00
N4732  N     0.86520   0.94450   0.52550   0.00000  Uiso   1.00
H4733  H     0.79765   0.75065   0.70800   0.00000  Uiso   1.00
H4734  H     0.82242   0.75310   0.70175   0.00000  Uiso   1.00
H4735  H     0.84440   0.99150   0.68400   0.00000  Uiso   1.00
H4736  H     0.84815   0.90225   0.55675   0.00000  Uiso   1.00
C4737  C     0.92980   0.84550   0.72550   0.00000  Uiso   1.00
C4738  C     0.94390   0.84475   0.72150   0.00000  Uiso   1.00
C4739  C     0.95265   0.81150   0.74600   0.00000  Uiso   1.00
C4740  C     0.96770   0.82175   0.74875   0.00000  Uiso   1.00
C4741  C     0.97500   0.84650   0.71500   0.00000  Uiso   1.00
C4742  C     0.97700   0.80300   0.53300   0.00000  Uiso   1.00
N4743  N     0.98902   0.84500   0.72475   0.00000  Uiso   1.00
N4744  N     0.99020   0.81950   0.52550   0.00000  Uiso   1.00
H4745  H     0.92265   0.87565   0.70800   0.00000  Uiso   1.00
H4746  H     0.94742   0.87810   0.70175   0.00000  Uiso   1.00
H4747  H     0.96940   0.86650   0.68400   0.00000  Uiso   1.00
H4748  H     0.97315   0.77725   0.55675   0.00000  Uiso   1.00
C4749  C     0.80480   0.77950   0.60050   0.00000  Uiso   1.00
C4750  C     0.81890   0.78025   0.59650   0.00000  Uiso   1.00
C4751  C     0.82765   0.81350   0.62100   0.00000  Uiso   1.00
C4752  C     0.84270   0.80325   0.62375   0.00000  Uiso   1.00
C4753  C     0.85000   0.77850   0.59000   0.00000  Uiso   1.00
C4754  C     0.85200   0.82200   0.65800   0.00000  Uiso   1.00
N4755  N     0.86402   0.78000   0.59975   0.00000  Uiso   1.00
N4756  N     0.86520   0.80550   0.65050   0.00000  Uiso   1.00
H4757  H     0.79765   0.99935   0.58300   0.00000  Uiso   1.00
H4758  H     0.82242   0.99690   0.57675   0.00000  Uiso   1.00
H4759  H     0.84440   0.75850   0.55900   0.00000  Uiso   1.00
H4760  H     0.84815   0.84775   0.68175   0.00000  Uiso   1.00
C4761  C     0.92980   0.90450   0.60050   0.00000  Uiso   1.00
C4762  C     0.94390   0.90525   0.59650   0.00000  Uiso   1.00
C4763  C     0.95265   0.93850   0.62100   0.00000  Uiso   1.00
C4764  C     0.96770   0.92825   0.62375   0.00000  Uiso   1.00
C4765  C     0.97500   0.90350   0.59000   0.00000  Uiso   1.00
C4766  C     0.97700   0.94700   0.65800   0.00000  Uiso   1.00
N4767  N     0.98902   0.90500   0.59975   0.00000  Uiso   1.00
N4768  N     0.99020   0.93050   0.65050   0.00000  Uiso   1.00
H4769  H     0.92265   0.87435   0.58300   0.00000  Uiso   1.00
H4770  H     0.94742   0.87190   0.57675   0.00000  Uiso   1.00
H4771  H     0.96940   0.88350   0.55900   0.00000  Uiso   1.00
H4772  H     0.97315   0.97275   0.68175   0.00000  Uiso   1.00
C4773  C     0.94520   0.77950   0.52450   0.00000  Uiso   1.00
C4774  C     0.93110   0.78025   0.52850   0.00000  Uiso   1.00
C4775  C     0.92235   0.81350   0.50400   0.00000  Uiso   1.00
C4776  C     0.90730   0.80325   0.50125   0.00000  Uiso   1.00
C4777  C     0.90000   0.77850   0.53500   0.00000  Uiso   1.00
C4778  C     0.89800   0.82200   0.71700   0.00000  Uiso   1.00
N4779  N     0.88597   0.78000   0.52525   0.00000  Uiso   1.00
N4780  N     0.88480   0.80550   0.72450   0.00000  Uiso   1.00
H4781  H     0.95235   0.99935   0.54200   0.00000  Uiso   1.00
H4782  H     0.92757   0.99690   0.54825   0.00000  Uiso   1.00
H4783  H     0.90560   0.75850   0.56600   0.00000  Uiso   1.00
H4784  H     0.90185   0.84775   0.69325   0.00000  Uiso   1.00
C4785  C     0.82020   0.90450   0.52450   0.00000  Uiso   1.00
C4786  C     0.80610   0.90525   0.52850   0.00000  Uiso   1.00
C4787  C     0.79735   0.93850   0.50400   0.00000  Uiso   1.00
C4788  C     0.78230   0.92825   0.50125   0.00000  Uiso   1.00
C4789  C     0.77500   0.90350   0.53500   0.00000  Uiso   1.00
C4790  C     0.77300   0.94700   0.71700   0.00000  Uiso   1.00
N4791  N     0.76097   0.90500   0.52525   0.00000  Uiso   1.00
N4792  N     0.75980   0.93050   0.72450   0.00000  Uiso   1.00
H4793  H     0.82735   0.87435   0.54200   0.00000  Uiso   1.00
H4794  H     0.80257   0.87190   0.54825   0.00000  Uiso   1.00
H4795  H     0.78060   0.88350   0.56600   0.00000  Uiso   1.00
H4796  H     0.77685   0.97275   0.69325   0.00000  Uiso   1.00
Co4797 Co    0.87500   0.75860   0.68750   0.00000  Uiso   1.00
Co4798 Co    0.75000   0.88360   0.68750   0.00000  Uiso   1.00
Co4799 Co    0.87500   0.99140   0.56250   0.00000  Uiso   1.00
Co4800 Co    0.75000   0.86640   0.56250   0.00000  Uiso   1.00
C4801  C     0.19520   0.22050   0.89950   0.00000  Uiso   1.00
C4802  C     0.18110   0.21975   0.90350   0.00000  Uiso   1.00
C4803  C     0.17235   0.18650   0.87900   0.00000  Uiso   1.00
C4804  C     0.15730   0.19675   0.87625   0.00000  Uiso   1.00
C4805  C     0.15000   0.22150   0.91000   0.00000  Uiso   1.00
C4806  C     0.14800   0.17800   0.84200   0.00000  Uiso   1.00
N4807  N     0.13598   0.22000   0.90025   0.00000  Uiso   1.00
N4808  N     0.13480   0.19450   0.84950   0.00000  Uiso   1.00
H4809  H     0.20235   0.00065   0.91700   0.00000  Uiso   1.00
H4810  H     0.17758   0.00310   0.92325   0.00000  Uiso   1.00
H4811  H     0.15560   0.24150   0.94100   0.00000  Uiso   1.00
H4812  H     0.15185   0.15225   0.81825   0.00000  Uiso   1.00
C4813  C     0.07020   0.09550   0.89950   0.00000  Uiso   1.00
C4814  C     0.05610   0.09475   0.90350   0.00000  Uiso   1.00
C4815  C     0.04735   0.06150   0.87900   0.00000  Uiso   1.00
C4816  C     0.03230   0.07175   0.87625   0.00000  Uiso   1.00
C4817  C     0.02500   0.09650   0.91000   0.00000  Uiso   1.00
C4818  C     0.02300   0.05300   0.84200   0.00000  Uiso   1.00
N4819  N     0.01098   0.09500   0.90025   0.00000  Uiso   1.00
N4820  N     0.00980   0.06950   0.84950   0.00000  Uiso   1.00
H4821  H     0.07735   0.12565   0.91700   0.00000  Uiso   1.00
H4822  H     0.05258   0.12810   0.92325   0.00000  Uiso   1.00
H4823  H     0.03060   0.11650   0.94100   0.00000  Uiso   1.00
H4824  H     0.02685   0.02725   0.81825   0.00000  Uiso   1.00
C4825  C     0.05480   0.22050   0.97550   0.00000  Uiso   1.00
C4826  C     0.06890   0.21975   0.97150   0.00000  Uiso   1.00
C4827  C     0.07765   0.18650   0.99600   0.00000  Uiso   1.00
C4828  C     0.09270   0.19675   0.99875   0.00000  Uiso   1.00
C4829  C     0.10000   0.22150   0.96500   0.00000  Uiso   1.00
C4830  C     0.10200   0.17800   0.78300   0.00000  Uiso   1.00
N4831  N     0.11403   0.22000   0.97475   0.00000  Uiso   1.00
N4832  N     0.11520   0.19450   0.77550   0.00000  Uiso   1.00
H4833  H     0.04765   0.00065   0.95800   0.00000  Uiso   1.00
H4834  H     0.07243   0.00310   0.95175   0.00000  Uiso   1.00
H4835  H     0.09440   0.24150   0.93400   0.00000  Uiso   1.00
H4836  H     0.09815   0.15225   0.80675   0.00000  Uiso   1.00
C4837  C     0.17980   0.09550   0.97550   0.00000  Uiso   1.00
C4838  C     0.19390   0.09475   0.97150   0.00000  Uiso   1.00
C4839  C     0.20265   0.06150   0.99600   0.00000  Uiso   1.00
C4840  C     0.21770   0.07175   0.99875   0.00000  Uiso   1.00
C4841  C     0.22500   0.09650   0.96500   0.00000  Uiso   1.00
C4842  C     0.22700   0.05300   0.78300   0.00000  Uiso   1.00
N4843  N     0.23902   0.09500   0.97475   0.00000  Uiso   1.00
N4844  N     0.24020   0.06950   0.77550   0.00000  Uiso   1.00
H4845  H     0.17265   0.12565   0.95800   0.00000  Uiso   1.00
H4846  H     0.19742   0.12810   0.95175   0.00000  Uiso   1.00
H4847  H     0.21940   0.11650   0.93400   0.00000  Uiso   1.00
H4848  H     0.22315   0.02725   0.80675   0.00000  Uiso   1.00
C4849  C     0.05480   0.02950   0.85050   0.00000  Uiso   1.00
C4850  C     0.06890   0.03025   0.84650   0.00000  Uiso   1.00
C4851  C     0.07765   0.06350   0.87100   0.00000  Uiso   1.00
C4852  C     0.09270   0.05325   0.87375   0.00000  Uiso   1.00
C4853  C     0.10000   0.02850   0.84000   0.00000  Uiso   1.00
C4854  C     0.10200   0.07200   0.90800   0.00000  Uiso   1.00
N4855  N     0.11403   0.03000   0.84975   0.00000  Uiso   1.00
N4856  N     0.11520   0.05550   0.90050   0.00000  Uiso   1.00
H4857  H     0.04765   0.24935   0.83300   0.00000  Uiso   1.00
H4858  H     0.07243   0.24690   0.82675   0.00000  Uiso   1.00
H4859  H     0.09440   0.00850   0.80900   0.00000  Uiso   1.00
H4860  H     0.09815   0.09775   0.93175   0.00000  Uiso   1.00
C4861  C     0.17980   0.15450   0.85050   0.00000  Uiso   1.00
C4862  C     0.19390   0.15525   0.84650   0.00000  Uiso   1.00
C4863  C     0.20265   0.18850   0.87100   0.00000  Uiso   1.00
C4864  C     0.21770   0.17825   0.87375   0.00000  Uiso   1.00
C4865  C     0.22500   0.15350   0.84000   0.00000  Uiso   1.00
C4866  C     0.22700   0.19700   0.90800   0.00000  Uiso   1.00
N4867  N     0.23902   0.15500   0.84975   0.00000  Uiso   1.00
N4868  N     0.24020   0.18050   0.90050   0.00000  Uiso   1.00
H4869  H     0.17265   0.12435   0.83300   0.00000  Uiso   1.00
H4870  H     0.19742   0.12190   0.82675   0.00000  Uiso   1.00
H4871  H     0.21940   0.13350   0.80900   0.00000  Uiso   1.00
H4872  H     0.22315   0.22275   0.93175   0.00000  Uiso   1.00
C4873  C     0.19520   0.02950   0.77450   0.00000  Uiso   1.00
C4874  C     0.18110   0.03025   0.77850   0.00000  Uiso   1.00
C4875  C     0.17235   0.06350   0.75400   0.00000  Uiso   1.00
C4876  C     0.15730   0.05325   0.75125   0.00000  Uiso   1.00
C4877  C     0.15000   0.02850   0.78500   0.00000  Uiso   1.00
C4878  C     0.14800   0.07200   0.96700   0.00000  Uiso   1.00
N4879  N     0.13598   0.03000   0.77525   0.00000  Uiso   1.00
N4880  N     0.13480   0.05550   0.97450   0.00000  Uiso   1.00
H4881  H     0.20235   0.24935   0.79200   0.00000  Uiso   1.00
H4882  H     0.17758   0.24690   0.79825   0.00000  Uiso   1.00
H4883  H     0.15560   0.00850   0.81600   0.00000  Uiso   1.00
H4884  H     0.15185   0.09775   0.94325   0.00000  Uiso   1.00
C4885  C     0.07020   0.15450   0.77450   0.00000  Uiso   1.00
C4886  C     0.05610   0.15525   0.77850   0.00000  Uiso   1.00
C4887  C     0.04735   0.18850   0.75400   0.00000  Uiso   1.00
C4888  C     0.03230   0.17825   0.75125   0.00000  Uiso   1.00
C4889  C     0.02500   0.15350   0.78500   0.00000  Uiso   1.00
C4890  C     0.02300   0.19700   0.96700   0.00000  Uiso   1.00
N4891  N     0.01098   0.15500   0.77525   0.00000  Uiso   1.00
N4892  N     0.00980   0.18050   0.97450   0.00000  Uiso   1.00
H4893  H     0.07735   0.12435   0.79200   0.00000  Uiso   1.00
H4894  H     0.05258   0.12190   0.79825   0.00000  Uiso   1.00
H4895  H     0.03060   0.13350   0.81600   0.00000  Uiso   1.00
H4896  H     0.02685   0.22275   0.94325   0.00000  Uiso   1.00
Co4897 Co    0.12500   0.00860   0.93750   0.00000  Uiso   1.00
Co4898 Co    0.00000   0.13360   0.93750   0.00000  Uiso   1.00
Co4899 Co    0.12500   0.24140   0.81250   0.00000  Uiso   1.00
Co4900 Co    0.00000   0.11640   0.81250   0.00000  Uiso   1.00
C4901  C     0.44520   0.22050   0.89950   0.00000  Uiso   1.00
C4902  C     0.43110   0.21975   0.90350   0.00000  Uiso   1.00
C4903  C     0.42235   0.18650   0.87900   0.00000  Uiso   1.00
C4904  C     0.40730   0.19675   0.87625   0.00000  Uiso   1.00
C4905  C     0.40000   0.22150   0.91000   0.00000  Uiso   1.00
C4906  C     0.39800   0.17800   0.84200   0.00000  Uiso   1.00
N4907  N     0.38597   0.22000   0.90025   0.00000  Uiso   1.00
N4908  N     0.38480   0.19450   0.84950   0.00000  Uiso   1.00
H4909  H     0.45235   0.00065   0.91700   0.00000  Uiso   1.00
H4910  H     0.42757   0.00310   0.92325   0.00000  Uiso   1.00
H4911  H     0.40560   0.24150   0.94100   0.00000  Uiso   1.00
H4912  H     0.40185   0.15225   0.81825   0.00000  Uiso   1.00
C4913  C     0.32020   0.09550   0.89950   0.00000  Uiso   1.00
C4914  C     0.30610   0.09475   0.90350   0.00000  Uiso   1.00
C4915  C     0.29735   0.06150   0.87900   0.00000  Uiso   1.00
C4916  C     0.28230   0.07175   0.87625   0.00000  Uiso   1.00
C4917  C     0.27500   0.09650   0.91000   0.00000  Uiso   1.00
C4918  C     0.27300   0.05300   0.84200   0.00000  Uiso   1.00
N4919  N     0.26098   0.09500   0.90025   0.00000  Uiso   1.00
N4920  N     0.25980   0.06950   0.84950   0.00000  Uiso   1.00
H4921  H     0.32735   0.12565   0.91700   0.00000  Uiso   1.00
H4922  H     0.30258   0.12810   0.92325   0.00000  Uiso   1.00
H4923  H     0.28060   0.11650   0.94100   0.00000  Uiso   1.00
H4924  H     0.27685   0.02725   0.81825   0.00000  Uiso   1.00
C4925  C     0.30480   0.22050   0.97550   0.00000  Uiso   1.00
C4926  C     0.31890   0.21975   0.97150   0.00000  Uiso   1.00
C4927  C     0.32765   0.18650   0.99600   0.00000  Uiso   1.00
C4928  C     0.34270   0.19675   0.99875   0.00000  Uiso   1.00
C4929  C     0.35000   0.22150   0.96500   0.00000  Uiso   1.00
C4930  C     0.35200   0.17800   0.78300   0.00000  Uiso   1.00
N4931  N     0.36402   0.22000   0.97475   0.00000  Uiso   1.00
N4932  N     0.36520   0.19450   0.77550   0.00000  Uiso   1.00
H4933  H     0.29765   0.00065   0.95800   0.00000  Uiso   1.00
H4934  H     0.32243   0.00310   0.95175   0.00000  Uiso   1.00
H4935  H     0.34440   0.24150   0.93400   0.00000  Uiso   1.00
H4936  H     0.34815   0.15225   0.80675   0.00000  Uiso   1.00
C4937  C     0.42980   0.09550   0.97550   0.00000  Uiso   1.00
C4938  C     0.44390   0.09475   0.97150   0.00000  Uiso   1.00
C4939  C     0.45265   0.06150   0.99600   0.00000  Uiso   1.00
C4940  C     0.46770   0.07175   0.99875   0.00000  Uiso   1.00
C4941  C     0.47500   0.09650   0.96500   0.00000  Uiso   1.00
C4942  C     0.47700   0.05300   0.78300   0.00000  Uiso   1.00
N4943  N     0.48902   0.09500   0.97475   0.00000  Uiso   1.00
N4944  N     0.49020   0.06950   0.77550   0.00000  Uiso   1.00
H4945  H     0.42265   0.12565   0.95800   0.00000  Uiso   1.00
H4946  H     0.44742   0.12810   0.95175   0.00000  Uiso   1.00
H4947  H     0.46940   0.11650   0.93400   0.00000  Uiso   1.00
H4948  H     0.47315   0.02725   0.80675   0.00000  Uiso   1.00
C4949  C     0.30480   0.02950   0.85050   0.00000  Uiso   1.00
C4950  C     0.31890   0.03025   0.84650   0.00000  Uiso   1.00
C4951  C     0.32765   0.06350   0.87100   0.00000  Uiso   1.00
C4952  C     0.34270   0.05325   0.87375   0.00000  Uiso   1.00
C4953  C     0.35000   0.02850   0.84000   0.00000  Uiso   1.00
C4954  C     0.35200   0.07200   0.90800   0.00000  Uiso   1.00
N4955  N     0.36402   0.03000   0.84975   0.00000  Uiso   1.00
N4956  N     0.36520   0.05550   0.90050   0.00000  Uiso   1.00
H4957  H     0.29765   0.24935   0.83300   0.00000  Uiso   1.00
H4958  H     0.32243   0.24690   0.82675   0.00000  Uiso   1.00
H4959  H     0.34440   0.00850   0.80900   0.00000  Uiso   1.00
H4960  H     0.34815   0.09775   0.93175   0.00000  Uiso   1.00
C4961  C     0.42980   0.15450   0.85050   0.00000  Uiso   1.00
C4962  C     0.44390   0.15525   0.84650   0.00000  Uiso   1.00
C4963  C     0.45265   0.18850   0.87100   0.00000  Uiso   1.00
C4964  C     0.46770   0.17825   0.87375   0.00000  Uiso   1.00
C4965  C     0.47500   0.15350   0.84000   0.00000  Uiso   1.00
C4966  C     0.47700   0.19700   0.90800   0.00000  Uiso   1.00
N4967  N     0.48902   0.15500   0.84975   0.00000  Uiso   1.00
N4968  N     0.49020   0.18050   0.90050   0.00000  Uiso   1.00
H4969  H     0.42265   0.12435   0.83300   0.00000  Uiso   1.00
H4970  H     0.44742   0.12190   0.82675   0.00000  Uiso   1.00
H4971  H     0.46940   0.13350   0.80900   0.00000  Uiso   1.00
H4972  H     0.47315   0.22275   0.93175   0.00000  Uiso   1.00
C4973  C     0.44520   0.02950   0.77450   0.00000  Uiso   1.00
C4974  C     0.43110   0.03025   0.77850   0.00000  Uiso   1.00
C4975  C     0.42235   0.06350   0.75400   0.00000  Uiso   1.00
C4976  C     0.40730   0.05325   0.75125   0.00000  Uiso   1.00
C4977  C     0.40000   0.02850   0.78500   0.00000  Uiso   1.00
C4978  C     0.39800   0.07200   0.96700   0.00000  Uiso   1.00
N4979  N     0.38597   0.03000   0.77525   0.00000  Uiso   1.00
N4980  N     0.38480   0.05550   0.97450   0.00000  Uiso   1.00
H4981  H     0.45235   0.24935   0.79200   0.00000  Uiso   1.00
H4982  H     0.42757   0.24690   0.79825   0.00000  Uiso   1.00
H4983  H     0.40560   0.00850   0.81600   0.00000  Uiso   1.00
H4984  H     0.40185   0.09775   0.94325   0.00000  Uiso   1.00
C4985  C     0.32020   0.15450   0.77450   0.00000  Uiso   1.00
C4986  C     0.30610   0.15525   0.77850   0.00000  Uiso   1.00
C4987  C     0.29735   0.18850   0.75400   0.00000  Uiso   1.00
C4988  C     0.28230   0.17825   0.75125   0.00000  Uiso   1.00
C4989  C     0.27500   0.15350   0.78500   0.00000  Uiso   1.00
C4990  C     0.27300   0.19700   0.96700   0.00000  Uiso   1.00
N4991  N     0.26098   0.15500   0.77525   0.00000  Uiso   1.00
N4992  N     0.25980   0.18050   0.97450   0.00000  Uiso   1.00
H4993  H     0.32735   0.12435   0.79200   0.00000  Uiso   1.00
H4994  H     0.30258   0.12190   0.79825   0.00000  Uiso   1.00
H4995  H     0.28060   0.13350   0.81600   0.00000  Uiso   1.00
H4996  H     0.27685   0.22275   0.94325   0.00000  Uiso   1.00
Co4997 Co    0.37500   0.00860   0.93750   0.00000  Uiso   1.00
Co4998 Co    0.25000   0.13360   0.93750   0.00000  Uiso   1.00
Co4999 Co    0.37500   0.24140   0.81250   0.00000  Uiso   1.00
Co5000 Co    0.25000   0.11640   0.81250   0.00000  Uiso   1.00
C5001  C     0.69520   0.22050   0.89950   0.00000  Uiso   1.00
C5002  C     0.68110   0.21975   0.90350   0.00000  Uiso   1.00
C5003  C     0.67235   0.18650   0.87900   0.00000  Uiso   1.00
C5004  C     0.65730   0.19675   0.87625   0.00000  Uiso   1.00
C5005  C     0.65000   0.22150   0.91000   0.00000  Uiso   1.00
C5006  C     0.64800   0.17800   0.84200   0.00000  Uiso   1.00
N5007  N     0.63597   0.22000   0.90025   0.00000  Uiso   1.00
N5008  N     0.63480   0.19450   0.84950   0.00000  Uiso   1.00
H5009  H     0.70235   0.00065   0.91700   0.00000  Uiso   1.00
H5010  H     0.67757   0.00310   0.92325   0.00000  Uiso   1.00
H5011  H     0.65560   0.24150   0.94100   0.00000  Uiso   1.00
H5012  H     0.65185   0.15225   0.81825   0.00000  Uiso   1.00
C5013  C     0.57020   0.09550   0.89950   0.00000  Uiso   1.00
C5014  C     0.55610   0.09475   0.90350   0.00000  Uiso   1.00
C5015  C     0.54735   0.06150   0.87900   0.00000  Uiso   1.00
C5016  C     0.53230   0.07175   0.87625   0.00000  Uiso   1.00
C5017  C     0.52500   0.09650   0.91000   0.00000  Uiso   1.00
C5018  C     0.52300   0.05300   0.84200   0.00000  Uiso   1.00
N5019  N     0.51098   0.09500   0.90025   0.00000  Uiso   1.00
N5020  N     0.50980   0.06950   0.84950   0.00000  Uiso   1.00
H5021  H     0.57735   0.12565   0.91700   0.00000  Uiso   1.00
H5022  H     0.55258   0.12810   0.92325   0.00000  Uiso   1.00
H5023  H     0.53060   0.11650   0.94100   0.00000  Uiso   1.00
H5024  H     0.52685   0.02725   0.81825   0.00000  Uiso   1.00
C5025  C     0.55480   0.22050   0.97550   0.00000  Uiso   1.00
C5026  C     0.56890   0.21975   0.97150   0.00000  Uiso   1.00
C5027  C     0.57765   0.18650   0.99600   0.00000  Uiso   1.00
C5028  C     0.59270   0.19675   0.99875   0.00000  Uiso   1.00
C5029  C     0.60000   0.22150   0.96500   0.00000  Uiso   1.00
C5030  C     0.60200   0.17800   0.78300   0.00000  Uiso   1.00
N5031  N     0.61402   0.22000   0.97475   0.00000  Uiso   1.00
N5032  N     0.61520   0.19450   0.77550   0.00000  Uiso   1.00
H5033  H     0.54765   0.00065   0.95800   0.00000  Uiso   1.00
H5034  H     0.57243   0.00310   0.95175   0.00000  Uiso   1.00
H5035  H     0.59440   0.24150   0.93400   0.00000  Uiso   1.00
H5036  H     0.59815   0.15225   0.80675   0.00000  Uiso   1.00
C5037  C     0.67980   0.09550   0.97550   0.00000  Uiso   1.00
C5038  C     0.69390   0.09475   0.97150   0.00000  Uiso   1.00
C5039  C     0.70265   0.06150   0.99600   0.00000  Uiso   1.00
C5040  C     0.71770   0.07175   0.99875   0.00000  Uiso   1.00
C5041  C     0.72500   0.09650   0.96500   0.00000  Uiso   1.00
C5042  C     0.72700   0.05300   0.78300   0.00000  Uiso   1.00
N5043  N     0.73902   0.09500   0.97475   0.00000  Uiso   1.00
N5044  N     0.74020   0.06950   0.77550   0.00000  Uiso   1.00
H5045  H     0.67265   0.12565   0.95800   0.00000  Uiso   1.00
H5046  H     0.69742   0.12810   0.95175   0.00000  Uiso   1.00
H5047  H     0.71940   0.11650   0.93400   0.00000  Uiso   1.00
H5048  H     0.72315   0.02725   0.80675   0.00000  Uiso   1.00
C5049  C     0.55480   0.02950   0.85050   0.00000  Uiso   1.00
C5050  C     0.56890   0.03025   0.84650   0.00000  Uiso   1.00
C5051  C     0.57765   0.06350   0.87100   0.00000  Uiso   1.00
C5052  C     0.59270   0.05325   0.87375   0.00000  Uiso   1.00
C5053  C     0.60000   0.02850   0.84000   0.00000  Uiso   1.00
C5054  C     0.60200   0.07200   0.90800   0.00000  Uiso   1.00
N5055  N     0.61402   0.03000   0.84975   0.00000  Uiso   1.00
N5056  N     0.61520   0.05550   0.90050   0.00000  Uiso   1.00
H5057  H     0.54765   0.24935   0.83300   0.00000  Uiso   1.00
H5058  H     0.57243   0.24690   0.82675   0.00000  Uiso   1.00
H5059  H     0.59440   0.00850   0.80900   0.00000  Uiso   1.00
H5060  H     0.59815   0.09775   0.93175   0.00000  Uiso   1.00
C5061  C     0.67980   0.15450   0.85050   0.00000  Uiso   1.00
C5062  C     0.69390   0.15525   0.84650   0.00000  Uiso   1.00
C5063  C     0.70265   0.18850   0.87100   0.00000  Uiso   1.00
C5064  C     0.71770   0.17825   0.87375   0.00000  Uiso   1.00
C5065  C     0.72500   0.15350   0.84000   0.00000  Uiso   1.00
C5066  C     0.72700   0.19700   0.90800   0.00000  Uiso   1.00
N5067  N     0.73902   0.15500   0.84975   0.00000  Uiso   1.00
N5068  N     0.74020   0.18050   0.90050   0.00000  Uiso   1.00
H5069  H     0.67265   0.12435   0.83300   0.00000  Uiso   1.00
H5070  H     0.69742   0.12190   0.82675   0.00000  Uiso   1.00
H5071  H     0.71940   0.13350   0.80900   0.00000  Uiso   1.00
H5072  H     0.72315   0.22275   0.93175   0.00000  Uiso   1.00
C5073  C     0.69520   0.02950   0.77450   0.00000  Uiso   1.00
C5074  C     0.68110   0.03025   0.77850   0.00000  Uiso   1.00
C5075  C     0.67235   0.06350   0.75400   0.00000  Uiso   1.00
C5076  C     0.65730   0.05325   0.75125   0.00000  Uiso   1.00
C5077  C     0.65000   0.02850   0.78500   0.00000  Uiso   1.00
C5078  C     0.64800   0.07200   0.96700   0.00000  Uiso   1.00
N5079  N     0.63597   0.03000   0.77525   0.00000  Uiso   1.00
N5080  N     0.63480   0.05550   0.97450   0.00000  Uiso   1.00
H5081  H     0.70235   0.24935   0.79200   0.00000  Uiso   1.00
H5082  H     0.67757   0.24690   0.79825   0.00000  Uiso   1.00
H5083  H     0.65560   0.00850   0.81600   0.00000  Uiso   1.00
H5084  H     0.65185   0.09775   0.94325   0.00000  Uiso   1.00
C5085  C     0.57020   0.15450   0.77450   0.00000  Uiso   1.00
C5086  C     0.55610   0.15525   0.77850   0.00000  Uiso   1.00
C5087  C     0.54735   0.18850   0.75400   0.00000  Uiso   1.00
C5088  C     0.53230   0.17825   0.75125   0.00000  Uiso   1.00
C5089  C     0.52500   0.15350   0.78500   0.00000  Uiso   1.00
C5090  C     0.52300   0.19700   0.96700   0.00000  Uiso   1.00
N5091  N     0.51098   0.15500   0.77525   0.00000  Uiso   1.00
N5092  N     0.50980   0.18050   0.97450   0.00000  Uiso   1.00
H5093  H     0.57735   0.12435   0.79200   0.00000  Uiso   1.00
H5094  H     0.55258   0.12190   0.79825   0.00000  Uiso   1.00
H5095  H     0.53060   0.13350   0.81600   0.00000  Uiso   1.00
H5096  H     0.52685   0.22275   0.94325   0.00000  Uiso   1.00
Co5097 Co    0.62500   0.00860   0.93750   0.00000  Uiso   1.00
Co5098 Co    0.50000   0.13360   0.93750   0.00000  Uiso   1.00
Co5099 Co    0.62500   0.24140   0.81250   0.00000  Uiso   1.00
Co5100 Co    0.50000   0.11640   0.81250   0.00000  Uiso   1.00
C5101  C     0.94520   0.22050   0.89950   0.00000  Uiso   1.00
C5102  C     0.93110   0.21975   0.90350   0.00000  Uiso   1.00
C5103  C     0.92235   0.18650   0.87900   0.00000  Uiso   1.00
C5104  C     0.90730   0.19675   0.87625   0.00000  Uiso   1.00
C5105  C     0.90000   0.22150   0.91000   0.00000  Uiso   1.00
C5106  C     0.89800   0.17800   0.84200   0.00000  Uiso   1.00
N5107  N     0.88597   0.22000   0.90025   0.00000  Uiso   1.00
N5108  N     0.88480   0.19450   0.84950   0.00000  Uiso   1.00
H5109  H     0.95235   0.00065   0.91700   0.00000  Uiso   1.00
H5110  H     0.92757   0.00310   0.92325   0.00000  Uiso   1.00
H5111  H     0.90560   0.24150   0.94100   0.00000  Uiso   1.00
H5112  H     0.90185   0.15225   0.81825   0.00000  Uiso   1.00
C5113  C     0.82020   0.09550   0.89950   0.00000  Uiso   1.00
C5114  C     0.80610   0.09475   0.90350   0.00000  Uiso   1.00
C5115  C     0.79735   0.06150   0.87900   0.00000  Uiso   1.00
C5116  C     0.78230   0.07175   0.87625   0.00000  Uiso   1.00
C5117  C     0.77500   0.09650   0.91000   0.00000  Uiso   1.00
C5118  C     0.77300   0.05300   0.84200   0.00000  Uiso   1.00
N5119  N     0.76097   0.09500   0.90025   0.00000  Uiso   1.00
N5120  N     0.75980   0.06950   0.84950   0.00000  Uiso   1.00
H5121  H     0.82735   0.12565   0.91700   0.00000  Uiso   1.00
H5122  H     0.80257   0.12810   0.92325   0.00000  Uiso   1.00
H5123  H     0.78060   0.11650   0.94100   0.00000  Uiso   1.00
H5124  H     0.77685   0.02725   0.81825   0.00000  Uiso   1.00
C5125  C     0.80480   0.22050   0.97550   0.00000  Uiso   1.00
C5126  C     0.81890   0.21975   0.97150   0.00000  Uiso   1.00
C5127  C     0.82765   0.18650   0.99600   0.00000  Uiso   1.00
C5128  C     0.84270   0.19675   0.99875   0.00000  Uiso   1.00
C5129  C     0.85000   0.22150   0.96500   0.00000  Uiso   1.00
C5130  C     0.85200   0.17800   0.78300   0.00000  Uiso   1.00
N5131  N     0.86402   0.22000   0.97475   0.00000  Uiso   1.00
N5132  N     0.86520   0.19450   0.77550   0.00000  Uiso   1.00
H5133  H     0.79765   0.00065   0.95800   0.00000  Uiso   1.00
H5134  H     0.82242   0.00310   0.95175   0.00000  Uiso   1.00
H5135  H     0.84440   0.24150   0.93400   0.00000  Uiso   1.00
H5136  H     0.84815   0.15225   0.80675   0.00000  Uiso   1.00
C5137  C     0.92980   0.09550   0.97550   0.00000  Uiso   1.00
C5138  C     0.94390   0.09475   0.97150   0.00000  Uiso   1.00
C5139  C     0.95265   0.06150   0.99600   0.00000  Uiso   1.00
C5140  C     0.96770   0.07175   0.99875   0.00000  Uiso   1.00
C5141  C     0.97500   0.09650   0.96500   0.00000  Uiso   1.00
C5142  C     0.97700   0.05300   0.78300   0.00000  Uiso   1.00
N5143  N     0.98902   0.09500   0.97475   0.00000  Uiso   1.00
N5144  N     0.99020   0.06950   0.77550   0.00000  Uiso   1.00
H5145  H     0.92265   0.12565   0.95800   0.00000  Uiso   1.00
H5146  H     0.94742   0.12810   0.95175   0.00000  Uiso   1.00
H5147  H     0.96940   0.11650   0.93400   0.00000  Uiso   1.00
H5148  H     0.97315   0.02725   0.80675   0.00000  Uiso   1.00
C5149  C     0.80480   0.02950   0.85050   0.00000  Uiso   1.00
C5150  C     0.81890   0.03025   0.84650   0.00000  Uiso   1.00
C5151  C     0.82765   0.06350   0.87100   0.00000  Uiso   1.00
C5152  C     0.84270   0.05325   0.87375   0.00000  Uiso   1.00
C5153  C     0.85000   0.02850   0.84000   0.00000  Uiso   1.00
C5154  C     0.85200   0.07200   0.90800   0.00000  Uiso   1.00
N5155  N     0.86402   0.03000   0.84975   0.00000  Uiso   1.00
N5156  N     0.86520   0.05550   0.90050   0.00000  Uiso   1.00
H5157  H     0.79765   0.24935   0.83300   0.00000  Uiso   1.00
H5158  H     0.82242   0.24690   0.82675   0.00000  Uiso   1.00
H5159  H     0.84440   0.00850   0.80900   0.00000  Uiso   1.00
H5160  H     0.84815   0.09775   0.93175   0.00000  Uiso   1.00
C5161  C     0.92980   0.15450   0.85050   0.00000  Uiso   1.00
C5162  C     0.94390   0.15525   0.84650   0.00000  Uiso   1.00
C5163  C     0.95265   0.18850   0.87100   0.00000  Uiso   1.00
C5164  C     0.96770   0.17825   0.87375   0.00000  Uiso   1.00
C5165  C     0.97500   0.15350   0.84000   0.00000  Uiso   1.00
C5166  C     0.97700   0.19700   0.90800   0.00000  Uiso   1.00
N5167  N     0.98902   0.15500   0.84975   0.00000  Uiso   1.00
N5168  N     0.99020   0.18050   0.90050   0.00000  Uiso   1.00
H5169  H     0.92265   0.12435   0.83300   0.00000  Uiso   1.00
H5170  H     0.94742   0.12190   0.82675   0.00000  Uiso   1.00
H5171  H     0.96940   0.13350   0.80900   0.00000  Uiso   1.00
H5172  H     0.97315   0.22275   0.93175   0.00000  Uiso   1.00
C5173  C     0.94520   0.02950   0.77450   0.00000  Uiso   1.00
C5174  C     0.93110   0.03025   0.77850   0.00000  Uiso   1.00
C5175  C     0.92235   0.06350   0.75400   0.00000  Uiso   1.00
C5176  C     0.90730   0.05325   0.75125   0.00000  Uiso   1.00
C5177  C     0.90000   0.02850   0.78500   0.00000  Uiso   1.00
C5178  C     0.89800   0.07200   0.96700   0.00000  Uiso   1.00
N5179  N     0.88597   0.03000   0.77525   0.00000  Uiso   1.00
N5180  N     0.88480   0.05550   0.97450   0.00000  Uiso   1.00
H5181  H     0.95235   0.24935   0.79200   0.00000  Uiso   1.00
H5182  H     0.92757   0.24690   0.79825   0.00000  Uiso   1.00
H5183  H     0.90560   0.00850   0.81600   0.00000  Uiso   1.00
H5184  H     0.90185   0.09775   0.94325   0.00000  Uiso   1.00
C5185  C     0.82020   0.15450   0.77450   0.00000  Uiso   1.00
C5186  C     0.80610   0.15525   0.77850   0.00000  Uiso   1.00
C5187  C     0.79735   0.18850   0.75400   0.00000  Uiso   1.00
C5188  C     0.78230   0.17825   0.75125   0.00000  Uiso   1.00
C5189  C     0.77500   0.15350   0.78500   0.00000  Uiso   1.00
C5190  C     0.77300   0.19700   0.96700   0.00000  Uiso   1.00
N5191  N     0.76097   0.15500   0.77525   0.00000  Uiso   1.00
N5192  N     0.75980   0.18050   0.97450   0.00000  Uiso   1.00
H5193  H     0.82735   0.12435   0.79200   0.00000  Uiso   1.00
H5194  H     0.80257   0.12190   0.79825   0.00000  Uiso   1.00
H5195  H     0.78060   0.13350   0.81600   0.00000  Uiso   1.00
H5196  H     0.77685   0.22275   0.94325   0.00000  Uiso   1.00
Co5197 Co    0.87500   0.00860   0.93750   0.00000  Uiso   1.00
Co5198 Co    0.75000   0.13360   0.93750   0.00000  Uiso   1.00
Co5199 Co    0.87500   0.24140   0.81250   0.00000  Uiso   1.00
Co5200 Co    0.75000   0.11640   0.81250   0.00000  Uiso   1.00
C5201  C     0.19520   0.47050   0.89950   0.00000  Uiso   1.00
C5202  C     0.18110   0.46975   0.90350   0.00000  Uiso   1.00
C5203  C     0.17235   0.43650   0.87900   0.00000  Uiso   1.00
C5204  C     0.15730   0.44675   0.87625   0.00000  Uiso   1.00
C5205  C     0.15000   0.47150   0.91000   0.00000  Uiso   1.00
C5206  C     0.14800   0.42800   0.84200   0.00000  Uiso   1.00
N5207  N     0.13598   0.47000   0.90025   0.00000  Uiso   1.00
N5208  N     0.13480   0.44450   0.84950   0.00000  Uiso   1.00
H5209  H     0.20235   0.25065   0.91700   0.00000  Uiso   1.00
H5210  H     0.17758   0.25310   0.92325   0.00000  Uiso   1.00
H5211  H     0.15560   0.49150   0.94100   0.00000  Uiso   1.00
H5212  H     0.15185   0.40225   0.81825   0.00000  Uiso   1.00
C5213  C     0.07020   0.34550   0.89950   0.00000  Uiso   1.00
C5214  C     0.05610   0.34475   0.90350   0.00000  Uiso   1.00
C5215  C     0.04735   0.31150   0.87900   0.00000  Uiso   1.00
C5216  C     0.03230   0.32175   0.87625   0.00000  Uiso   1.00
C5217  C     0.02500   0.34650   0.91000   0.00000  Uiso   1.00
C5218  C     0.02300   0.30300   0.84200   0.00000  Uiso   1.00
N5219  N     0.01098   0.34500   0.90025   0.00000  Uiso   1.00
N5220  N     0.00980   0.31950   0.84950   0.00000  Uiso   1.00
H5221  H     0.07735   0.37565   0.91700   0.00000  Uiso   1.00
H5222  H     0.05258   0.37810   0.92325   0.00000  Uiso   1.00
H5223  H     0.03060   0.36650   0.94100   0.00000  Uiso   1.00
H5224  H     0.02685   0.27725   0.81825   0.00000  Uiso   1.00
C5225  C     0.05480   0.47050   0.97550   0.00000  Uiso   1.00
C5226  C     0.06890   0.46975   0.97150   0.00000  Uiso   1.00
C5227  C     0.07765   0.43650   0.99600   0.00000  Uiso   1.00
C5228  C     0.09270   0.44675   0.99875   0.00000  Uiso   1.00
C5229  C     0.10000   0.47150   0.96500   0.00000  Uiso   1.00
C5230  C     0.10200   0.42800   0.78300   0.00000  Uiso   1.00
N5231  N     0.11403   0.47000   0.97475   0.00000  Uiso   1.00
N5232  N     0.11520   0.44450   0.77550   0.00000  Uiso   1.00
H5233  H     0.04765   0.25065   0.95800   0.00000  Uiso   1.00
H5234  H     0.07243   0.25310   0.95175   0.00000  Uiso   1.00
H5235  H     0.09440   0.49150   0.93400   0.00000  Uiso   1.00
H5236  H     0.09815   0.40225   0.80675   0.00000  Uiso   1.00
C5237  C     0.17980   0.34550   0.97550   0.00000  Uiso   1.00
C5238  C     0.19390   0.34475   0.97150   0.00000  Uiso   1.00
C5239  C     0.20265   0.31150   0.99600   0.00000  Uiso   1.00
C5240  C     0.21770   0.32175   0.99875   0.00000  Uiso   1.00
C5241  C     0.22500   0.34650   0.96500   0.00000  Uiso   1.00
C5242  C     0.22700   0.30300   0.78300   0.00000  Uiso   1.00
N5243  N     0.23902   0.34500   0.97475   0.00000  Uiso   1.00
N5244  N     0.24020   0.31950   0.77550   0.00000  Uiso   1.00
H5245  H     0.17265   0.37565   0.95800   0.00000  Uiso   1.00
H5246  H     0.19742   0.37810   0.95175   0.00000  Uiso   1.00
H5247  H     0.21940   0.36650   0.93400   0.00000  Uiso   1.00
H5248  H     0.22315   0.27725   0.80675   0.00000  Uiso   1.00
C5249  C     0.05480   0.27950   0.85050   0.00000  Uiso   1.00
C5250  C     0.06890   0.28025   0.84650   0.00000  Uiso   1.00
C5251  C     0.07765   0.31350   0.87100   0.00000  Uiso   1.00
C5252  C     0.09270   0.30325   0.87375   0.00000  Uiso   1.00
C5253  C     0.10000   0.27850   0.84000   0.00000  Uiso   1.00
C5254  C     0.10200   0.32200   0.90800   0.00000  Uiso   1.00
N5255  N     0.11403   0.28000   0.84975   0.00000  Uiso   1.00
N5256  N     0.11520   0.30550   0.90050   0.00000  Uiso   1.00
H5257  H     0.04765   0.49935   0.83300   0.00000  Uiso   1.00
H5258  H     0.07243   0.49690   0.82675   0.00000  Uiso   1.00
H5259  H     0.09440   0.25850   0.80900   0.00000  Uiso   1.00
H5260  H     0.09815   0.34775   0.93175   0.00000  Uiso   1.00
C5261  C     0.17980   0.40450   0.85050   0.00000  Uiso   1.00
C5262  C     0.19390   0.40525   0.84650   0.00000  Uiso   1.00
C5263  C     0.20265   0.43850   0.87100   0.00000  Uiso   1.00
C5264  C     0.21770   0.42825   0.87375   0.00000  Uiso   1.00
C5265  C     0.22500   0.40350   0.84000   0.00000  Uiso   1.00
C5266  C     0.22700   0.44700   0.90800   0.00000  Uiso   1.00
N5267  N     0.23902   0.40500   0.84975   0.00000  Uiso   1.00
N5268  N     0.24020   0.43050   0.90050   0.00000  Uiso   1.00
H5269  H     0.17265   0.37435   0.83300   0.00000  Uiso   1.00
H5270  H     0.19742   0.37190   0.82675   0.00000  Uiso   1.00
H5271  H     0.21940   0.38350   0.80900   0.00000  Uiso   1.00
H5272  H     0.22315   0.47275   0.93175   0.00000  Uiso   1.00
C5273  C     0.19520   0.27950   0.77450   0.00000  Uiso   1.00
C5274  C     0.18110   0.28025   0.77850   0.00000  Uiso   1.00
C5275  C     0.17235   0.31350   0.75400   0.00000  Uiso   1.00
C5276  C     0.15730   0.30325   0.75125   0.00000  Uiso   1.00
C5277  C     0.15000   0.27850   0.78500   0.00000  Uiso   1.00
C5278  C     0.14800   0.32200   0.96700   0.00000  Uiso   1.00
N5279  N     0.13598   0.28000   0.77525   0.00000  Uiso   1.00
N5280  N     0.13480   0.30550   0.97450   0.00000  Uiso   1.00
H5281  H     0.20235   0.49935   0.79200   0.00000  Uiso   1.00
H5282  H     0.17758   0.49690   0.79825   0.00000  Uiso   1.00
H5283  H     0.15560   0.25850   0.81600   0.00000  Uiso   1.00
H5284  H     0.15185   0.34775   0.94325   0.00000  Uiso   1.00
C5285  C     0.07020   0.40450   0.77450   0.00000  Uiso   1.00
C5286  C     0.05610   0.40525   0.77850   0.00000  Uiso   1.00
C5287  C     0.04735   0.43850   0.75400   0.00000  Uiso   1.00
C5288  C     0.03230   0.42825   0.75125   0.00000  Uiso   1.00
C5289  C     0.02500   0.40350   0.78500   0.00000  Uiso   1.00
C5290  C     0.02300   0.44700   0.96700   0.00000  Uiso   1.00
N5291  N     0.01098   0.40500   0.77525   0.00000  Uiso   1.00
N5292  N     0.00980   0.43050   0.97450   0.00000  Uiso   1.00
H5293  H     0.07735   0.37435   0.79200   0.00000  Uiso   1.00
H5294  H     0.05258   0.37190   0.79825   0.00000  Uiso   1.00
H5295  H     0.03060   0.38350   0.81600   0.00000  Uiso   1.00
H5296  H     0.02685   0.47275   0.94325   0.00000  Uiso   1.00
Co5297 Co    0.12500   0.25860   0.93750   0.00000  Uiso   1.00
Co5298 Co    0.00000   0.38360   0.93750   0.00000  Uiso   1.00
Co5299 Co    0.12500   0.49140   0.81250   0.00000  Uiso   1.00
Co5300 Co    0.00000   0.36640   0.81250   0.00000  Uiso   1.00
C5301  C     0.44520   0.47050   0.89950   0.00000  Uiso   1.00
C5302  C     0.43110   0.46975   0.90350   0.00000  Uiso   1.00
C5303  C     0.42235   0.43650   0.87900   0.00000  Uiso   1.00
C5304  C     0.40730   0.44675   0.87625   0.00000  Uiso   1.00
C5305  C     0.40000   0.47150   0.91000   0.00000  Uiso   1.00
C5306  C     0.39800   0.42800   0.84200   0.00000  Uiso   1.00
N5307  N     0.38597   0.47000   0.90025   0.00000  Uiso   1.00
N5308  N     0.38480   0.44450   0.84950   0.00000  Uiso   1.00
H5309  H     0.45235   0.25065   0.91700   0.00000  Uiso   1.00
H5310  H     0.42757   0.25310   0.92325   0.00000  Uiso   1.00
H5311  H     0.40560   0.49150   0.94100   0.00000  Uiso   1.00
H5312  H     0.40185   0.40225   0.81825   0.00000  Uiso   1.00
C5313  C     0.32020   0.34550   0.89950   0.00000  Uiso   1.00
C5314  C     0.30610   0.34475   0.90350   0.00000  Uiso   1.00
C5315  C     0.29735   0.31150   0.87900   0.00000  Uiso   1.00
C5316  C     0.28230   0.32175   0.87625   0.00000  Uiso   1.00
C5317  C     0.27500   0.34650   0.91000   0.00000  Uiso   1.00
C5318  C     0.27300   0.30300   0.84200   0.00000  Uiso   1.00
N5319  N     0.26098   0.34500   0.90025   0.00000  Uiso   1.00
N5320  N     0.25980   0.31950   0.84950   0.00000  Uiso   1.00
H5321  H     0.32735   0.37565   0.91700   0.00000  Uiso   1.00
H5322  H     0.30258   0.37810   0.92325   0.00000  Uiso   1.00
H5323  H     0.28060   0.36650   0.94100   0.00000  Uiso   1.00
H5324  H     0.27685   0.27725   0.81825   0.00000  Uiso   1.00
C5325  C     0.30480   0.47050   0.97550   0.00000  Uiso   1.00
C5326  C     0.31890   0.46975   0.97150   0.00000  Uiso   1.00
C5327  C     0.32765   0.43650   0.99600   0.00000  Uiso   1.00
C5328  C     0.34270   0.44675   0.99875   0.00000  Uiso   1.00
C5329  C     0.35000   0.47150   0.96500   0.00000  Uiso   1.00
C5330  C     0.35200   0.42800   0.78300   0.00000  Uiso   1.00
N5331  N     0.36402   0.47000   0.97475   0.00000  Uiso   1.00
N5332  N     0.36520   0.44450   0.77550   0.00000  Uiso   1.00
H5333  H     0.29765   0.25065   0.95800   0.00000  Uiso   1.00
H5334  H     0.32243   0.25310   0.95175   0.00000  Uiso   1.00
H5335  H     0.34440   0.49150   0.93400   0.00000  Uiso   1.00
H5336  H     0.34815   0.40225   0.80675   0.00000  Uiso   1.00
C5337  C     0.42980   0.34550   0.97550   0.00000  Uiso   1.00
C5338  C     0.44390   0.34475   0.97150   0.00000  Uiso   1.00
C5339  C     0.45265   0.31150   0.99600   0.00000  Uiso   1.00
C5340  C     0.46770   0.32175   0.99875   0.00000  Uiso   1.00
C5341  C     0.47500   0.34650   0.96500   0.00000  Uiso   1.00
C5342  C     0.47700   0.30300   0.78300   0.00000  Uiso   1.00
N5343  N     0.48902   0.34500   0.97475   0.00000  Uiso   1.00
N5344  N     0.49020   0.31950   0.77550   0.00000  Uiso   1.00
H5345  H     0.42265   0.37565   0.95800   0.00000  Uiso   1.00
H5346  H     0.44742   0.37810   0.95175   0.00000  Uiso   1.00
H5347  H     0.46940   0.36650   0.93400   0.00000  Uiso   1.00
H5348  H     0.47315   0.27725   0.80675   0.00000  Uiso   1.00
C5349  C     0.30480   0.27950   0.85050   0.00000  Uiso   1.00
C5350  C     0.31890   0.28025   0.84650   0.00000  Uiso   1.00
C5351  C     0.32765   0.31350   0.87100   0.00000  Uiso   1.00
C5352  C     0.34270   0.30325   0.87375   0.00000  Uiso   1.00
C5353  C     0.35000   0.27850   0.84000   0.00000  Uiso   1.00
C5354  C     0.35200   0.32200   0.90800   0.00000  Uiso   1.00
N5355  N     0.36402   0.28000   0.84975   0.00000  Uiso   1.00
N5356  N     0.36520   0.30550   0.90050   0.00000  Uiso   1.00
H5357  H     0.29765   0.49935   0.83300   0.00000  Uiso   1.00
H5358  H     0.32243   0.49690   0.82675   0.00000  Uiso   1.00
H5359  H     0.34440   0.25850   0.80900   0.00000  Uiso   1.00
H5360  H     0.34815   0.34775   0.93175   0.00000  Uiso   1.00
C5361  C     0.42980   0.40450   0.85050   0.00000  Uiso   1.00
C5362  C     0.44390   0.40525   0.84650   0.00000  Uiso   1.00
C5363  C     0.45265   0.43850   0.87100   0.00000  Uiso   1.00
C5364  C     0.46770   0.42825   0.87375   0.00000  Uiso   1.00
C5365  C     0.47500   0.40350   0.84000   0.00000  Uiso   1.00
C5366  C     0.47700   0.44700   0.90800   0.00000  Uiso   1.00
N5367  N     0.48902   0.40500   0.84975   0.00000  Uiso   1.00
N5368  N     0.49020   0.43050   0.90050   0.00000  Uiso   1.00
H5369  H     0.42265   0.37435   0.83300   0.00000  Uiso   1.00
H5370  H     0.44742   0.37190   0.82675   0.00000  Uiso   1.00
H5371  H     0.46940   0.38350   0.80900   0.00000  Uiso   1.00
H5372  H     0.47315   0.47275   0.93175   0.00000  Uiso   1.00
C5373  C     0.44520   0.27950   0.77450   0.00000  Uiso   1.00
C5374  C     0.43110   0.28025   0.77850   0.00000  Uiso   1.00
C5375  C     0.42235   0.31350   0.75400   0.00000  Uiso   1.00
C5376  C     0.40730   0.30325   0.75125   0.00000  Uiso   1.00
C5377  C     0.40000   0.27850   0.78500   0.00000  Uiso   1.00
C5378  C     0.39800   0.32200   0.96700   0.00000  Uiso   1.00
N5379  N     0.38597   0.28000   0.77525   0.00000  Uiso   1.00
N5380  N     0.38480   0.30550   0.97450   0.00000  Uiso   1.00
H5381  H     0.45235   0.49935   0.79200   0.00000  Uiso   1.00
H5382  H     0.42757   0.49690   0.79825   0.00000  Uiso   1.00
H5383  H     0.40560   0.25850   0.81600   0.00000  Uiso   1.00
H5384  H     0.40185   0.34775   0.94325   0.00000  Uiso   1.00
C5385  C     0.32020   0.40450   0.77450   0.00000  Uiso   1.00
C5386  C     0.30610   0.40525   0.77850   0.00000  Uiso   1.00
C5387  C     0.29735   0.43850   0.75400   0.00000  Uiso   1.00
C5388  C     0.28230   0.42825   0.75125   0.00000  Uiso   1.00
C5389  C     0.27500   0.40350   0.78500   0.00000  Uiso   1.00
C5390  C     0.27300   0.44700   0.96700   0.00000  Uiso   1.00
N5391  N     0.26098   0.40500   0.77525   0.00000  Uiso   1.00
N5392  N     0.25980   0.43050   0.97450   0.00000  Uiso   1.00
H5393  H     0.32735   0.37435   0.79200   0.00000  Uiso   1.00
H5394  H     0.30258   0.37190   0.79825   0.00000  Uiso   1.00
H5395  H     0.28060   0.38350   0.81600   0.00000  Uiso   1.00
H5396  H     0.27685   0.47275   0.94325   0.00000  Uiso   1.00
Co5397 Co    0.37500   0.25860   0.93750   0.00000  Uiso   1.00
Co5398 Co    0.25000   0.38360   0.93750   0.00000  Uiso   1.00
Co5399 Co    0.37500   0.49140   0.81250   0.00000  Uiso   1.00
Co5400 Co    0.25000   0.36640   0.81250   0.00000  Uiso   1.00
C5401  C     0.69520   0.47050   0.89950   0.00000  Uiso   1.00
C5402  C     0.68110   0.46975   0.90350   0.00000  Uiso   1.00
C5403  C     0.67235   0.43650   0.87900   0.00000  Uiso   1.00
C5404  C     0.65730   0.44675   0.87625   0.00000  Uiso   1.00
C5405  C     0.65000   0.47150   0.91000   0.00000  Uiso   1.00
C5406  C     0.64800   0.42800   0.84200   0.00000  Uiso   1.00
N5407  N     0.63597   0.47000   0.90025   0.00000  Uiso   1.00
N5408  N     0.63480   0.44450   0.84950   0.00000  Uiso   1.00
H5409  H     0.70235   0.25065   0.91700   0.00000  Uiso   1.00
H5410  H     0.67757   0.25310   0.92325   0.00000  Uiso   1.00
H5411  H     0.65560   0.49150   0.94100   0.00000  Uiso   1.00
H5412  H     0.65185   0.40225   0.81825   0.00000  Uiso   1.00
C5413  C     0.57020   0.34550   0.89950   0.00000  Uiso   1.00
C5414  C     0.55610   0.34475   0.90350   0.00000  Uiso   1.00
C5415  C     0.54735   0.31150   0.87900   0.00000  Uiso   1.00
C5416  C     0.53230   0.32175   0.87625   0.00000  Uiso   1.00
C5417  C     0.52500   0.34650   0.91000   0.00000  Uiso   1.00
C5418  C     0.52300   0.30300   0.84200   0.00000  Uiso   1.00
N5419  N     0.51098   0.34500   0.90025   0.00000  Uiso   1.00
N5420  N     0.50980   0.31950   0.84950   0.00000  Uiso   1.00
H5421  H     0.57735   0.37565   0.91700   0.00000  Uiso   1.00
H5422  H     0.55258   0.37810   0.92325   0.00000  Uiso   1.00
H5423  H     0.53060   0.36650   0.94100   0.00000  Uiso   1.00
H5424  H     0.52685   0.27725   0.81825   0.00000  Uiso   1.00
C5425  C     0.55480   0.47050   0.97550   0.00000  Uiso   1.00
C5426  C     0.56890   0.46975   0.97150   0.00000  Uiso   1.00
C5427  C     0.57765   0.43650   0.99600   0.00000  Uiso   1.00
C5428  C     0.59270   0.44675   0.99875   0.00000  Uiso   1.00
C5429  C     0.60000   0.47150   0.96500   0.00000  Uiso   1.00
C5430  C     0.60200   0.42800   0.78300   0.00000  Uiso   1.00
N5431  N     0.61402   0.47000   0.97475   0.00000  Uiso   1.00
N5432  N     0.61520   0.44450   0.77550   0.00000  Uiso   1.00
H5433  H     0.54765   0.25065   0.95800   0.00000  Uiso   1.00
H5434  H     0.57243   0.25310   0.95175   0.00000  Uiso   1.00
H5435  H     0.59440   0.49150   0.93400   0.00000  Uiso   1.00
H5436  H     0.59815   0.40225   0.80675   0.00000  Uiso   1.00
C5437  C     0.67980   0.34550   0.97550   0.00000  Uiso   1.00
C5438  C     0.69390   0.34475   0.97150   0.00000  Uiso   1.00
C5439  C     0.70265   0.31150   0.99600   0.00000  Uiso   1.00
C5440  C     0.71770   0.32175   0.99875   0.00000  Uiso   1.00
C5441  C     0.72500   0.34650   0.96500   0.00000  Uiso   1.00
C5442  C     0.72700   0.30300   0.78300   0.00000  Uiso   1.00
N5443  N     0.73902   0.34500   0.97475   0.00000  Uiso   1.00
N5444  N     0.74020   0.31950   0.77550   0.00000  Uiso   1.00
H5445  H     0.67265   0.37565   0.95800   0.00000  Uiso   1.00
H5446  H     0.69742   0.37810   0.95175   0.00000  Uiso   1.00
H5447  H     0.71940   0.36650   0.93400   0.00000  Uiso   1.00
H5448  H     0.72315   0.27725   0.80675   0.00000  Uiso   1.00
C5449  C     0.55480   0.27950   0.85050   0.00000  Uiso   1.00
C5450  C     0.56890   0.28025   0.84650   0.00000  Uiso   1.00
C5451  C     0.57765   0.31350   0.87100   0.00000  Uiso   1.00
C5452  C     0.59270   0.30325   0.87375   0.00000  Uiso   1.00
C5453  C     0.60000   0.27850   0.84000   0.00000  Uiso   1.00
C5454  C     0.60200   0.32200   0.90800   0.00000  Uiso   1.00
N5455  N     0.61402   0.28000   0.84975   0.00000  Uiso   1.00
N5456  N     0.61520   0.30550   0.90050   0.00000  Uiso   1.00
H5457  H     0.54765   0.49935   0.83300   0.00000  Uiso   1.00
H5458  H     0.57243   0.49690   0.82675   0.00000  Uiso   1.00
H5459  H     0.59440   0.25850   0.80900   0.00000  Uiso   1.00
H5460  H     0.59815   0.34775   0.93175   0.00000  Uiso   1.00
C5461  C     0.67980   0.40450   0.85050   0.00000  Uiso   1.00
C5462  C     0.69390   0.40525   0.84650   0.00000  Uiso   1.00
C5463  C     0.70265   0.43850   0.87100   0.00000  Uiso   1.00
C5464  C     0.71770   0.42825   0.87375   0.00000  Uiso   1.00
C5465  C     0.72500   0.40350   0.84000   0.00000  Uiso   1.00
C5466  C     0.72700   0.44700   0.90800   0.00000  Uiso   1.00
N5467  N     0.73902   0.40500   0.84975   0.00000  Uiso   1.00
N5468  N     0.74020   0.43050   0.90050   0.00000  Uiso   1.00
H5469  H     0.67265   0.37435   0.83300   0.00000  Uiso   1.00
H5470  H     0.69742   0.37190   0.82675   0.00000  Uiso   1.00
H5471  H     0.71940   0.38350   0.80900   0.00000  Uiso   1.00
H5472  H     0.72315   0.47275   0.93175   0.00000  Uiso   1.00
C5473  C     0.69520   0.27950   0.77450   0.00000  Uiso   1.00
C5474  C     0.68110   0.28025   0.77850   0.00000  Uiso   1.00
C5475  C     0.67235   0.31350   0.75400   0.00000  Uiso   1.00
C5476  C     0.65730   0.30325   0.75125   0.00000  Uiso   1.00
C5477  C     0.65000   0.27850   0.78500   0.00000  Uiso   1.00
C5478  C     0.64800   0.32200   0.96700   0.00000  Uiso   1.00
N5479  N     0.63597   0.28000   0.77525   0.00000  Uiso   1.00
N5480  N     0.63480   0.30550   0.97450   0.00000  Uiso   1.00
H5481  H     0.70235   0.49935   0.79200   0.00000  Uiso   1.00
H5482  H     0.67757   0.49690   0.79825   0.00000  Uiso   1.00
H5483  H     0.65560   0.25850   0.81600   0.00000  Uiso   1.00
H5484  H     0.65185   0.34775   0.94325   0.00000  Uiso   1.00
C5485  C     0.57020   0.40450   0.77450   0.00000  Uiso   1.00
C5486  C     0.55610   0.40525   0.77850   0.00000  Uiso   1.00
C5487  C     0.54735   0.43850   0.75400   0.00000  Uiso   1.00
C5488  C     0.53230   0.42825   0.75125   0.00000  Uiso   1.00
C5489  C     0.52500   0.40350   0.78500   0.00000  Uiso   1.00
C5490  C     0.52300   0.44700   0.96700   0.00000  Uiso   1.00
N5491  N     0.51098   0.40500   0.77525   0.00000  Uiso   1.00
N5492  N     0.50980   0.43050   0.97450   0.00000  Uiso   1.00
H5493  H     0.57735   0.37435   0.79200   0.00000  Uiso   1.00
H5494  H     0.55258   0.37190   0.79825   0.00000  Uiso   1.00
H5495  H     0.53060   0.38350   0.81600   0.00000  Uiso   1.00
H5496  H     0.52685   0.47275   0.94325   0.00000  Uiso   1.00
Co5497 Co    0.62500   0.25860   0.93750   0.00000  Uiso   1.00
Co5498 Co    0.50000   0.38360   0.93750   0.00000  Uiso   1.00
Co5499 Co    0.62500   0.49140   0.81250   0.00000  Uiso   1.00
Co5500 Co    0.50000   0.36640   0.81250   0.00000  Uiso   1.00
C5501  C     0.94520   0.47050   0.89950   0.00000  Uiso   1.00
C5502  C     0.93110   0.46975   0.90350   0.00000  Uiso   1.00
C5503  C     0.92235   0.43650   0.87900   0.00000  Uiso   1.00
C5504  C     0.90730   0.44675   0.87625   0.00000  Uiso   1.00
C5505  C     0.90000   0.47150   0.91000   0.00000  Uiso   1.00
C5506  C     0.89800   0.42800   0.84200   0.00000  Uiso   1.00
N5507  N     0.88597   0.47000   0.90025   0.00000  Uiso   1.00
N5508  N     0.88480   0.44450   0.84950   0.00000  Uiso   1.00
H5509  H     0.95235   0.25065   0.91700   0.00000  Uiso   1.00
H5510  H     0.92757   0.25310   0.92325   0.00000  Uiso   1.00
H5511  H     0.90560   0.49150   0.94100   0.00000  Uiso   1.00
H5512  H     0.90185   0.40225   0.81825   0.00000  Uiso   1.00
C5513  C     0.82020   0.34550   0.89950   0.00000  Uiso   1.00
C5514  C     0.80610   0.34475   0.90350   0.00000  Uiso   1.00
C5515  C     0.79735   0.31150   0.87900   0.00000  Uiso   1.00
C5516  C     0.78230   0.32175   0.87625   0.00000  Uiso   1.00
C5517  C     0.77500   0.34650   0.91000   0.00000  Uiso   1.00
C5518  C     0.77300   0.30300   0.84200   0.00000  Uiso   1.00
N5519  N     0.76097   0.34500   0.90025   0.00000  Uiso   1.00
N5520  N     0.75980   0.31950   0.84950   0.00000  Uiso   1.00
H5521  H     0.82735   0.37565   0.91700   0.00000  Uiso   1.00
H5522  H     0.80257   0.37810   0.92325   0.00000  Uiso   1.00
H5523  H     0.78060   0.36650   0.94100   0.00000  Uiso   1.00
H5524  H     0.77685   0.27725   0.81825   0.00000  Uiso   1.00
C5525  C     0.80480   0.47050   0.97550   0.00000  Uiso   1.00
C5526  C     0.81890   0.46975   0.97150   0.00000  Uiso   1.00
C5527  C     0.82765   0.43650   0.99600   0.00000  Uiso   1.00
C5528  C     0.84270   0.44675   0.99875   0.00000  Uiso   1.00
C5529  C     0.85000   0.47150   0.96500   0.00000  Uiso   1.00
C5530  C     0.85200   0.42800   0.78300   0.00000  Uiso   1.00
N5531  N     0.86402   0.47000   0.97475   0.00000  Uiso   1.00
N5532  N     0.86520   0.44450   0.77550   0.00000  Uiso   1.00
H5533  H     0.79765   0.25065   0.95800   0.00000  Uiso   1.00
H5534  H     0.82242   0.25310   0.95175   0.00000  Uiso   1.00
H5535  H     0.84440   0.49150   0.93400   0.00000  Uiso   1.00
H5536  H     0.84815   0.40225   0.80675   0.00000  Uiso   1.00
C5537  C     0.92980   0.34550   0.97550   0.00000  Uiso   1.00
C5538  C     0.94390   0.34475   0.97150   0.00000  Uiso   1.00
C5539  C     0.95265   0.31150   0.99600   0.00000  Uiso   1.00
C5540  C     0.96770   0.32175   0.99875   0.00000  Uiso   1.00
C5541  C     0.97500   0.34650   0.96500   0.00000  Uiso   1.00
C5542  C     0.97700   0.30300   0.78300   0.00000  Uiso   1.00
N5543  N     0.98902   0.34500   0.97475   0.00000  Uiso   1.00
N5544  N     0.99020   0.31950   0.77550   0.00000  Uiso   1.00
H5545  H     0.92265   0.37565   0.95800   0.00000  Uiso   1.00
H5546  H     0.94742   0.37810   0.95175   0.00000  Uiso   1.00
H5547  H     0.96940   0.36650   0.93400   0.00000  Uiso   1.00
H5548  H     0.97315   0.27725   0.80675   0.00000  Uiso   1.00
C5549  C     0.80480   0.27950   0.85050   0.00000  Uiso   1.00
C5550  C     0.81890   0.28025   0.84650   0.00000  Uiso   1.00
C5551  C     0.82765   0.31350   0.87100   0.00000  Uiso   1.00
C5552  C     0.84270   0.30325   0.87375   0.00000  Uiso   1.00
C5553  C     0.85000   0.27850   0.84000   0.00000  Uiso   1.00
C5554  C     0.85200   0.32200   0.90800   0.00000  Uiso   1.00
N5555  N     0.86402   0.28000   0.84975   0.00000  Uiso   1.00
N5556  N     0.86520   0.30550   0.90050   0.00000  Uiso   1.00
H5557  H     0.79765   0.49935   0.83300   0.00000  Uiso   1.00
H5558  H     0.82242   0.49690   0.82675   0.00000  Uiso   1.00
H5559  H     0.84440   0.25850   0.80900   0.00000  Uiso   1.00
H5560  H     0.84815   0.34775   0.93175   0.00000  Uiso   1.00
C5561  C     0.92980   0.40450   0.85050   0.00000  Uiso   1.00
C5562  C     0.94390   0.40525   0.84650   0.00000  Uiso   1.00
C5563  C     0.95265   0.43850   0.87100   0.00000  Uiso   1.00
C5564  C     0.96770   0.42825   0.87375   0.00000  Uiso   1.00
C5565  C     0.97500   0.40350   0.84000   0.00000  Uiso   1.00
C5566  C     0.97700   0.44700   0.90800   0.00000  Uiso   1.00
N5567  N     0.98902   0.40500   0.84975   0.00000  Uiso   1.00
N5568  N     0.99020   0.43050   0.90050   0.00000  Uiso   1.00
H5569  H     0.92265   0.37435   0.83300   0.00000  Uiso   1.00
H5570  H     0.94742   0.37190   0.82675   0.00000  Uiso   1.00
H5571  H     0.96940   0.38350   0.80900   0.00000  Uiso   1.00
H5572  H     0.97315   0.47275   0.93175   0.00000  Uiso   1.00
C5573  C     0.94520   0.27950   0.77450   0.00000  Uiso   1.00
C5574  C     0.93110   0.28025   0.77850   0.00000  Uiso   1.00
C5575  C     0.92235   0.31350   0.75400   0.00000  Uiso   1.00
C5576  C     0.90730   0.30325   0.75125   0.00000  Uiso   1.00
C5577  C     0.90000   0.27850   0.78500   0.00000  Uiso   1.00
C5578  C     0.89800   0.32200   0.96700   0.00000  Uiso   1.00
N5579  N     0.88597   0.28000   0.77525   0.00000  Uiso   1.00
N5580  N     0.88480   0.30550   0.97450   0.00000  Uiso   1.00
H5581  H     0.95235   0.49935   0.79200   0.00000  Uiso   1.00
H5582  H     0.92757   0.49690   0.79825   0.00000  Uiso   1.00
H5583  H     0.90560   0.25850   0.81600   0.00000  Uiso   1.00
H5584  H     0.90185   0.34775   0.94325   0.00000  Uiso   1.00
C5585  C     0.82020   0.40450   0.77450   0.00000  Uiso   1.00
C5586  C     0.80610   0.40525   0.77850   0.00000  Uiso   1.00
C5587  C     0.79735   0.43850   0.75400   0.00000  Uiso   1.00
C5588  C     0.78230   0.42825   0.75125   0.00000  Uiso   1.00
C5589  C     0.77500   0.40350   0.78500   0.00000  Uiso   1.00
C5590  C     0.77300   0.44700   0.96700   0.00000  Uiso   1.00
N5591  N     0.76097   0.40500   0.77525   0.00000  Uiso   1.00
N5592  N     0.75980   0.43050   0.97450   0.00000  Uiso   1.00
H5593  H     0.82735   0.37435   0.79200   0.00000  Uiso   1.00
H5594  H     0.80257   0.37190   0.79825   0.00000  Uiso   1.00
H5595  H     0.78060   0.38350   0.81600   0.00000  Uiso   1.00
H5596  H     0.77685   0.47275   0.94325   0.00000  Uiso   1.00
Co5597 Co    0.87500   0.25860   0.93750   0.00000  Uiso   1.00
Co5598 Co    0.75000   0.38360   0.93750   0.00000  Uiso   1.00
Co5599 Co    0.87500   0.49140   0.81250   0.00000  Uiso   1.00
Co5600 Co    0.75000   0.36640   0.81250   0.00000  Uiso   1.00
C5601  C     0.19520   0.72050   0.89950   0.00000  Uiso   1.00
C5602  C     0.18110   0.71975   0.90350   0.00000  Uiso   1.00
C5603  C     0.17235   0.68650   0.87900   0.00000  Uiso   1.00
C5604  C     0.15730   0.69675   0.87625   0.00000  Uiso   1.00
C5605  C     0.15000   0.72150   0.91000   0.00000  Uiso   1.00
C5606  C     0.14800   0.67800   0.84200   0.00000  Uiso   1.00
N5607  N     0.13598   0.72000   0.90025   0.00000  Uiso   1.00
N5608  N     0.13480   0.69450   0.84950   0.00000  Uiso   1.00
H5609  H     0.20235   0.50065   0.91700   0.00000  Uiso   1.00
H5610  H     0.17758   0.50310   0.92325   0.00000  Uiso   1.00
H5611  H     0.15560   0.74150   0.94100   0.00000  Uiso   1.00
H5612  H     0.15185   0.65225   0.81825   0.00000  Uiso   1.00
C5613  C     0.07020   0.59550   0.89950   0.00000  Uiso   1.00
C5614  C     0.05610   0.59475   0.90350   0.00000  Uiso   1.00
C5615  C     0.04735   0.56150   0.87900   0.00000  Uiso   1.00
C5616  C     0.03230   0.57175   0.87625   0.00000  Uiso   1.00
C5617  C     0.02500   0.59650   0.91000   0.00000  Uiso   1.00
C5618  C     0.02300   0.55300   0.84200   0.00000  Uiso   1.00
N5619  N     0.01098   0.59500   0.90025   0.00000  Uiso   1.00
N5620  N     0.00980   0.56950   0.84950   0.00000  Uiso   1.00
H5621  H     0.07735   0.62565   0.91700   0.00000  Uiso   1.00
H5622  H     0.05258   0.62810   0.92325   0.00000  Uiso   1.00
H5623  H     0.03060   0.61650   0.94100   0.00000  Uiso   1.00
H5624  H     0.02685   0.52725   0.81825   0.00000  Uiso   1.00
C5625  C     0.05480   0.72050   0.97550   0.00000  Uiso   1.00
C5626  C     0.06890   0.71975   0.97150   0.00000  Uiso   1.00
C5627  C     0.07765   0.68650   0.99600   0.00000  Uiso   1.00
C5628  C     0.09270   0.69675   0.99875   0.00000  Uiso   1.00
C5629  C     0.10000   0.72150   0.96500   0.00000  Uiso   1.00
C5630  C     0.10200   0.67800   0.78300   0.00000  Uiso   1.00
N5631  N     0.11403   0.72000   0.97475   0.00000  Uiso   1.00
N5632  N     0.11520   0.69450   0.77550   0.00000  Uiso   1.00
H5633  H     0.04765   0.50065   0.95800   0.00000  Uiso   1.00
H5634  H     0.07243   0.50310   0.95175   0.00000  Uiso   1.00
H5635  H     0.09440   0.74150   0.93400   0.00000  Uiso   1.00
H5636  H     0.09815   0.65225   0.80675   0.00000  Uiso   1.00
C5637  C     0.17980   0.59550   0.97550   0.00000  Uiso   1.00
C5638  C     0.19390   0.59475   0.97150   0.00000  Uiso   1.00
C5639  C     0.20265   0.56150   0.99600   0.00000  Uiso   1.00
C5640  C     0.21770   0.57175   0.99875   0.00000  Uiso   1.00
C5641  C     0.22500   0.59650   0.96500   0.00000  Uiso   1.00
C5642  C     0.22700   0.55300   0.78300   0.00000  Uiso   1.00
N5643  N     0.23902   0.59500   0.97475   0.00000  Uiso   1.00
N5644  N     0.24020   0.56950   0.77550   0.00000  Uiso   1.00
H5645  H     0.17265   0.62565   0.95800   0.00000  Uiso   1.00
H5646  H     0.19742   0.62810   0.95175   0.00000  Uiso   1.00
H5647  H     0.21940   0.61650   0.93400   0.00000  Uiso   1.00
H5648  H     0.22315   0.52725   0.80675   0.00000  Uiso   1.00
C5649  C     0.05480   0.52950   0.85050   0.00000  Uiso   1.00
C5650  C     0.06890   0.53025   0.84650   0.00000  Uiso   1.00
C5651  C     0.07765   0.56350   0.87100   0.00000  Uiso   1.00
C5652  C     0.09270   0.55325   0.87375   0.00000  Uiso   1.00
C5653  C     0.10000   0.52850   0.84000   0.00000  Uiso   1.00
C5654  C     0.10200   0.57200   0.90800   0.00000  Uiso   1.00
N5655  N     0.11403   0.53000   0.84975   0.00000  Uiso   1.00
N5656  N     0.11520   0.55550   0.90050   0.00000  Uiso   1.00
H5657  H     0.04765   0.74935   0.83300   0.00000  Uiso   1.00
H5658  H     0.07243   0.74690   0.82675   0.00000  Uiso   1.00
H5659  H     0.09440   0.50850   0.80900   0.00000  Uiso   1.00
H5660  H     0.09815   0.59775   0.93175   0.00000  Uiso   1.00
C5661  C     0.17980   0.65450   0.85050   0.00000  Uiso   1.00
C5662  C     0.19390   0.65525   0.84650   0.00000  Uiso   1.00
C5663  C     0.20265   0.68850   0.87100   0.00000  Uiso   1.00
C5664  C     0.21770   0.67825   0.87375   0.00000  Uiso   1.00
C5665  C     0.22500   0.65350   0.84000   0.00000  Uiso   1.00
C5666  C     0.22700   0.69700   0.90800   0.00000  Uiso   1.00
N5667  N     0.23902   0.65500   0.84975   0.00000  Uiso   1.00
N5668  N     0.24020   0.68050   0.90050   0.00000  Uiso   1.00
H5669  H     0.17265   0.62435   0.83300   0.00000  Uiso   1.00
H5670  H     0.19742   0.62190   0.82675   0.00000  Uiso   1.00
H5671  H     0.21940   0.63350   0.80900   0.00000  Uiso   1.00
H5672  H     0.22315   0.72275   0.93175   0.00000  Uiso   1.00
C5673  C     0.19520   0.52950   0.77450   0.00000  Uiso   1.00
C5674  C     0.18110   0.53025   0.77850   0.00000  Uiso   1.00
C5675  C     0.17235   0.56350   0.75400   0.00000  Uiso   1.00
C5676  C     0.15730   0.55325   0.75125   0.00000  Uiso   1.00
C5677  C     0.15000   0.52850   0.78500   0.00000  Uiso   1.00
C5678  C     0.14800   0.57200   0.96700   0.00000  Uiso   1.00
N5679  N     0.13598   0.53000   0.77525   0.00000  Uiso   1.00
N5680  N     0.13480   0.55550   0.97450   0.00000  Uiso   1.00
H5681  H     0.20235   0.74935   0.79200   0.00000  Uiso   1.00
H5682  H     0.17758   0.74690   0.79825   0.00000  Uiso   1.00
H5683  H     0.15560   0.50850   0.81600   0.00000  Uiso   1.00
H5684  H     0.15185   0.59775   0.94325   0.00000  Uiso   1.00
C5685  C     0.07020   0.65450   0.77450   0.00000  Uiso   1.00
C5686  C     0.05610   0.65525   0.77850   0.00000  Uiso   1.00
C5687  C     0.04735   0.68850   0.75400   0.00000  Uiso   1.00
C5688  C     0.03230   0.67825   0.75125   0.00000  Uiso   1.00
C5689  C     0.02500   0.65350   0.78500   0.00000  Uiso   1.00
C5690  C     0.02300   0.69700   0.96700   0.00000  Uiso   1.00
N5691  N     0.01098   0.65500   0.77525   0.00000  Uiso   1.00
N5692  N     0.00980   0.68050   0.97450   0.00000  Uiso   1.00
H5693  H     0.07735   0.62435   0.79200   0.00000  Uiso   1.00
H5694  H     0.05258   0.62190   0.79825   0.00000  Uiso   1.00
H5695  H     0.03060   0.63350   0.81600   0.00000  Uiso   1.00
H5696  H     0.02685   0.72275   0.94325   0.00000  Uiso   1.00
Co5697 Co    0.12500   0.50860   0.93750   0.00000  Uiso   1.00
Co5698 Co    0.00000   0.63360   0.93750   0.00000  Uiso   1.00
Co5699 Co    0.12500   0.74140   0.81250   0.00000  Uiso   1.00
Co5700 Co    0.00000   0.61640   0.81250   0.00000  Uiso   1.00
C5701  C     0.44520   0.72050   0.89950   0.00000  Uiso   1.00
C5702  C     0.43110   0.71975   0.90350   0.00000  Uiso   1.00
C5703  C     0.42235   0.68650   0.87900   0.00000  Uiso   1.00
C5704  C     0.40730   0.69675   0.87625   0.00000  Uiso   1.00
C5705  C     0.40000   0.72150   0.91000   0.00000  Uiso   1.00
C5706  C     0.39800   0.67800   0.84200   0.00000  Uiso   1.00
N5707  N     0.38597   0.72000   0.90025   0.00000  Uiso   1.00
N5708  N     0.38480   0.69450   0.84950   0.00000  Uiso   1.00
H5709  H     0.45235   0.50065   0.91700   0.00000  Uiso   1.00
H5710  H     0.42757   0.50310   0.92325   0.00000  Uiso   1.00
H5711  H     0.40560   0.74150   0.94100   0.00000  Uiso   1.00
H5712  H     0.40185   0.65225   0.81825   0.00000  Uiso   1.00
C5713  C     0.32020   0.59550   0.89950   0.00000  Uiso   1.00
C5714  C     0.30610   0.59475   0.90350   0.00000  Uiso   1.00
C5715  C     0.29735   0.56150   0.87900   0.00000  Uiso   1.00
C5716  C     0.28230   0.57175   0.87625   0.00000  Uiso   1.00
C5717  C     0.27500   0.59650   0.91000   0.00000  Uiso   1.00
C5718  C     0.27300   0.55300   0.84200   0.00000  Uiso   1.00
N5719  N     0.26098   0.59500   0.90025   0.00000  Uiso   1.00
N5720  N     0.25980   0.56950   0.84950   0.00000  Uiso   1.00
H5721  H     0.32735   0.62565   0.91700   0.00000  Uiso   1.00
H5722  H     0.30258   0.62810   0.92325   0.00000  Uiso   1.00
H5723  H     0.28060   0.61650   0.94100   0.00000  Uiso   1.00
H5724  H     0.27685   0.52725   0.81825   0.00000  Uiso   1.00
C5725  C     0.30480   0.72050   0.97550   0.00000  Uiso   1.00
C5726  C     0.31890   0.71975   0.97150   0.00000  Uiso   1.00
C5727  C     0.32765   0.68650   0.99600   0.00000  Uiso   1.00
C5728  C     0.34270   0.69675   0.99875   0.00000  Uiso   1.00
C5729  C     0.35000   0.72150   0.96500   0.00000  Uiso   1.00
C5730  C     0.35200   0.67800   0.78300   0.00000  Uiso   1.00
N5731  N     0.36402   0.72000   0.97475   0.00000  Uiso   1.00
N5732  N     0.36520   0.69450   0.77550   0.00000  Uiso   1.00
H5733  H     0.29765   0.50065   0.95800   0.00000  Uiso   1.00
H5734  H     0.32243   0.50310   0.95175   0.00000  Uiso   1.00
H5735  H     0.34440   0.74150   0.93400   0.00000  Uiso   1.00
H5736  H     0.34815   0.65225   0.80675   0.00000  Uiso   1.00
C5737  C     0.42980   0.59550   0.97550   0.00000  Uiso   1.00
C5738  C     0.44390   0.59475   0.97150   0.00000  Uiso   1.00
C5739  C     0.45265   0.56150   0.99600   0.00000  Uiso   1.00
C5740  C     0.46770   0.57175   0.99875   0.00000  Uiso   1.00
C5741  C     0.47500   0.59650   0.96500   0.00000  Uiso   1.00
C5742  C     0.47700   0.55300   0.78300   0.00000  Uiso   1.00
N5743  N     0.48902   0.59500   0.97475   0.00000  Uiso   1.00
N5744  N     0.49020   0.56950   0.77550   0.00000  Uiso   1.00
H5745  H     0.42265   0.62565   0.95800   0.00000  Uiso   1.00
H5746  H     0.44742   0.62810   0.95175   0.00000  Uiso   1.00
H5747  H     0.46940   0.61650   0.93400   0.00000  Uiso   1.00
H5748  H     0.47315   0.52725   0.80675   0.00000  Uiso   1.00
C5749  C     0.30480   0.52950   0.85050   0.00000  Uiso   1.00
C5750  C     0.31890   0.53025   0.84650   0.00000  Uiso   1.00
C5751  C     0.32765   0.56350   0.87100   0.00000  Uiso   1.00
C5752  C     0.34270   0.55325   0.87375   0.00000  Uiso   1.00
C5753  C     0.35000   0.52850   0.84000   0.00000  Uiso   1.00
C5754  C     0.35200   0.57200   0.90800   0.00000  Uiso   1.00
N5755  N     0.36402   0.53000   0.84975   0.00000  Uiso   1.00
N5756  N     0.36520   0.55550   0.90050   0.00000  Uiso   1.00
H5757  H     0.29765   0.74935   0.83300   0.00000  Uiso   1.00
H5758  H     0.32243   0.74690   0.82675   0.00000  Uiso   1.00
H5759  H     0.34440   0.50850   0.80900   0.00000  Uiso   1.00
H5760  H     0.34815   0.59775   0.93175   0.00000  Uiso   1.00
C5761  C     0.42980   0.65450   0.85050   0.00000  Uiso   1.00
C5762  C     0.44390   0.65525   0.84650   0.00000  Uiso   1.00
C5763  C     0.45265   0.68850   0.87100   0.00000  Uiso   1.00
C5764  C     0.46770   0.67825   0.87375   0.00000  Uiso   1.00
C5765  C     0.47500   0.65350   0.84000   0.00000  Uiso   1.00
C5766  C     0.47700   0.69700   0.90800   0.00000  Uiso   1.00
N5767  N     0.48902   0.65500   0.84975   0.00000  Uiso   1.00
N5768  N     0.49020   0.68050   0.90050   0.00000  Uiso   1.00
H5769  H     0.42265   0.62435   0.83300   0.00000  Uiso   1.00
H5770  H     0.44742   0.62190   0.82675   0.00000  Uiso   1.00
H5771  H     0.46940   0.63350   0.80900   0.00000  Uiso   1.00
H5772  H     0.47315   0.72275   0.93175   0.00000  Uiso   1.00
C5773  C     0.44520   0.52950   0.77450   0.00000  Uiso   1.00
C5774  C     0.43110   0.53025   0.77850   0.00000  Uiso   1.00
C5775  C     0.42235   0.56350   0.75400   0.00000  Uiso   1.00
C5776  C     0.40730   0.55325   0.75125   0.00000  Uiso   1.00
C5777  C     0.40000   0.52850   0.78500   0.00000  Uiso   1.00
C5778  C     0.39800   0.57200   0.96700   0.00000  Uiso   1.00
N5779  N     0.38597   0.53000   0.77525   0.00000  Uiso   1.00
N5780  N     0.38480   0.55550   0.97450   0.00000  Uiso   1.00
H5781  H     0.45235   0.74935   0.79200   0.00000  Uiso   1.00
H5782  H     0.42757   0.74690   0.79825   0.00000  Uiso   1.00
H5783  H     0.40560   0.50850   0.81600   0.00000  Uiso   1.00
H5784  H     0.40185   0.59775   0.94325   0.00000  Uiso   1.00
C5785  C     0.32020   0.65450   0.77450   0.00000  Uiso   1.00
C5786  C     0.30610   0.65525   0.77850   0.00000  Uiso   1.00
C5787  C     0.29735   0.68850   0.75400   0.00000  Uiso   1.00
C5788  C     0.28230   0.67825   0.75125   0.00000  Uiso   1.00
C5789  C     0.27500   0.65350   0.78500   0.00000  Uiso   1.00
C5790  C     0.27300   0.69700   0.96700   0.00000  Uiso   1.00
N5791  N     0.26098   0.65500   0.77525   0.00000  Uiso   1.00
N5792  N     0.25980   0.68050   0.97450   0.00000  Uiso   1.00
H5793  H     0.32735   0.62435   0.79200   0.00000  Uiso   1.00
H5794  H     0.30258   0.62190   0.79825   0.00000  Uiso   1.00
H5795  H     0.28060   0.63350   0.81600   0.00000  Uiso   1.00
H5796  H     0.27685   0.72275   0.94325   0.00000  Uiso   1.00
Co5797 Co    0.37500   0.50860   0.93750   0.00000  Uiso   1.00
Co5798 Co    0.25000   0.63360   0.93750   0.00000  Uiso   1.00
Co5799 Co    0.37500   0.74140   0.81250   0.00000  Uiso   1.00
Co5800 Co    0.25000   0.61640   0.81250   0.00000  Uiso   1.00
C5801  C     0.69520   0.72050   0.89950   0.00000  Uiso   1.00
C5802  C     0.68110   0.71975   0.90350   0.00000  Uiso   1.00
C5803  C     0.67235   0.68650   0.87900   0.00000  Uiso   1.00
C5804  C     0.65730   0.69675   0.87625   0.00000  Uiso   1.00
C5805  C     0.65000   0.72150   0.91000   0.00000  Uiso   1.00
C5806  C     0.64800   0.67800   0.84200   0.00000  Uiso   1.00
N5807  N     0.63597   0.72000   0.90025   0.00000  Uiso   1.00
N5808  N     0.63480   0.69450   0.84950   0.00000  Uiso   1.00
H5809  H     0.70235   0.50065   0.91700   0.00000  Uiso   1.00
H5810  H     0.67757   0.50310   0.92325   0.00000  Uiso   1.00
H5811  H     0.65560   0.74150   0.94100   0.00000  Uiso   1.00
H5812  H     0.65185   0.65225   0.81825   0.00000  Uiso   1.00
C5813  C     0.57020   0.59550   0.89950   0.00000  Uiso   1.00
C5814  C     0.55610   0.59475   0.90350   0.00000  Uiso   1.00
C5815  C     0.54735   0.56150   0.87900   0.00000  Uiso   1.00
C5816  C     0.53230   0.57175   0.87625   0.00000  Uiso   1.00
C5817  C     0.52500   0.59650   0.91000   0.00000  Uiso   1.00
C5818  C     0.52300   0.55300   0.84200   0.00000  Uiso   1.00
N5819  N     0.51098   0.59500   0.90025   0.00000  Uiso   1.00
N5820  N     0.50980   0.56950   0.84950   0.00000  Uiso   1.00
H5821  H     0.57735   0.62565   0.91700   0.00000  Uiso   1.00
H5822  H     0.55258   0.62810   0.92325   0.00000  Uiso   1.00
H5823  H     0.53060   0.61650   0.94100   0.00000  Uiso   1.00
H5824  H     0.52685   0.52725   0.81825   0.00000  Uiso   1.00
C5825  C     0.55480   0.72050   0.97550   0.00000  Uiso   1.00
C5826  C     0.56890   0.71975   0.97150   0.00000  Uiso   1.00
C5827  C     0.57765   0.68650   0.99600   0.00000  Uiso   1.00
C5828  C     0.59270   0.69675   0.99875   0.00000  Uiso   1.00
C5829  C     0.60000   0.72150   0.96500   0.00000  Uiso   1.00
C5830  C     0.60200   0.67800   0.78300   0.00000  Uiso   1.00
N5831  N     0.61402   0.72000   0.97475   0.00000  Uiso   1.00
N5832  N     0.61520   0.69450   0.77550   0.00000  Uiso   1.00
H5833  H     0.54765   0.50065   0.95800   0.00000  Uiso   1.00
H5834  H     0.57243   0.50310   0.95175   0.00000  Uiso   1.00
H5835  H     0.59440   0.74150   0.93400   0.00000  Uiso   1.00
H5836  H     0.59815   0.65225   0.80675   0.00000  Uiso   1.00
C5837  C     0.67980   0.59550   0.97550   0.00000  Uiso   1.00
C5838  C     0.69390   0.59475   0.97150   0.00000  Uiso   1.00
C5839  C     0.70265   0.56150   0.99600   0.00000  Uiso   1.00
C5840  C     0.71770   0.57175   0.99875   0.00000  Uiso   1.00
C5841  C     0.72500   0.59650   0.96500   0.00000  Uiso   1.00
C5842  C     0.72700   0.55300   0.78300   0.00000  Uiso   1.00
N5843  N     0.73902   0.59500   0.97475   0.00000  Uiso   1.00
N5844  N     0.74020   0.56950   0.77550   0.00000  Uiso   1.00
H5845  H     0.67265   0.62565   0.95800   0.00000  Uiso   1.00
H5846  H     0.69742   0.62810   0.95175   0.00000  Uiso   1.00
H5847  H     0.71940   0.61650   0.93400   0.00000  Uiso   1.00
H5848  H     0.72315   0.52725   0.80675   0.00000  Uiso   1.00
C5849  C     0.55480   0.52950   0.85050   0.00000  Uiso   1.00
C5850  C     0.56890   0.53025   0.84650   0.00000  Uiso   1.00
C5851  C     0.57765   0.56350   0.87100   0.00000  Uiso   1.00
C5852  C     0.59270   0.55325   0.87375   0.00000  Uiso   1.00
C5853  C     0.60000   0.52850   0.84000   0.00000  Uiso   1.00
C5854  C     0.60200   0.57200   0.90800   0.00000  Uiso   1.00
N5855  N     0.61402   0.53000   0.84975   0.00000  Uiso   1.00
N5856  N     0.61520   0.55550   0.90050   0.00000  Uiso   1.00
H5857  H     0.54765   0.74935   0.83300   0.00000  Uiso   1.00
H5858  H     0.57243   0.74690   0.82675   0.00000  Uiso   1.00
H5859  H     0.59440   0.50850   0.80900   0.00000  Uiso   1.00
H5860  H     0.59815   0.59775   0.93175   0.00000  Uiso   1.00
C5861  C     0.67980   0.65450   0.85050   0.00000  Uiso   1.00
C5862  C     0.69390   0.65525   0.84650   0.00000  Uiso   1.00
C5863  C     0.70265   0.68850   0.87100   0.00000  Uiso   1.00
C5864  C     0.71770   0.67825   0.87375   0.00000  Uiso   1.00
C5865  C     0.72500   0.65350   0.84000   0.00000  Uiso   1.00
C5866  C     0.72700   0.69700   0.90800   0.00000  Uiso   1.00
N5867  N     0.73902   0.65500   0.84975   0.00000  Uiso   1.00
N5868  N     0.74020   0.68050   0.90050   0.00000  Uiso   1.00
H5869  H     0.67265   0.62435   0.83300   0.00000  Uiso   1.00
H5870  H     0.69742   0.62190   0.82675   0.00000  Uiso   1.00
H5871  H     0.71940   0.63350   0.80900   0.00000  Uiso   1.00
H5872  H     0.72315   0.72275   0.93175   0.00000  Uiso   1.00
C5873  C     0.69520   0.52950   0.77450   0.00000  Uiso   1.00
C5874  C     0.68110   0.53025   0.77850   0.00000  Uiso   1.00
C5875  C     0.67235   0.56350   0.75400   0.00000  Uiso   1.00
C5876  C     0.65730   0.55325   0.75125   0.00000  Uiso   1.00
C5877  C     0.65000   0.52850   0.78500   0.00000  Uiso   1.00
C5878  C     0.64800   0.57200   0.96700   0.00000  Uiso   1.00
N5879  N     0.63597   0.53000   0.77525   0.00000  Uiso   1.00
N5880  N     0.63480   0.55550   0.97450   0.00000  Uiso   1.00
H5881  H     0.70235   0.74935   0.79200   0.00000  Uiso   1.00
H5882  H     0.67757   0.74690   0.79825   0.00000  Uiso   1.00
H5883  H     0.65560   0.50850   0.81600   0.00000  Uiso   1.00
H5884  H     0.65185   0.59775   0.94325   0.00000  Uiso   1.00
C5885  C     0.57020   0.65450   0.77450   0.00000  Uiso   1.00
C5886  C     0.55610   0.65525   0.77850   0.00000  Uiso   1.00
C5887  C     0.54735   0.68850   0.75400   0.00000  Uiso   1.00
C5888  C     0.53230   0.67825   0.75125   0.00000  Uiso   1.00
C5889  C     0.52500   0.65350   0.78500   0.00000  Uiso   1.00
C5890  C     0.52300   0.69700   0.96700   0.00000  Uiso   1.00
N5891  N     0.51098   0.65500   0.77525   0.00000  Uiso   1.00
N5892  N     0.50980   0.68050   0.97450   0.00000  Uiso   1.00
H5893  H     0.57735   0.62435   0.79200   0.00000  Uiso   1.00
H5894  H     0.55258   0.62190   0.79825   0.00000  Uiso   1.00
H5895  H     0.53060   0.63350   0.81600   0.00000  Uiso   1.00
H5896  H     0.52685   0.72275   0.94325   0.00000  Uiso   1.00
Co5897 Co    0.62500   0.50860   0.93750   0.00000  Uiso   1.00
Co5898 Co    0.50000   0.63360   0.93750   0.00000  Uiso   1.00
Co5899 Co    0.62500   0.74140   0.81250   0.00000  Uiso   1.00
Co5900 Co    0.50000   0.61640   0.81250   0.00000  Uiso   1.00
C5901  C     0.94520   0.72050   0.89950   0.00000  Uiso   1.00
C5902  C     0.93110   0.71975   0.90350   0.00000  Uiso   1.00
C5903  C     0.92235   0.68650   0.87900   0.00000  Uiso   1.00
C5904  C     0.90730   0.69675   0.87625   0.00000  Uiso   1.00
C5905  C     0.90000   0.72150   0.91000   0.00000  Uiso   1.00
C5906  C     0.89800   0.67800   0.84200   0.00000  Uiso   1.00
N5907  N     0.88597   0.72000   0.90025   0.00000  Uiso   1.00
N5908  N     0.88480   0.69450   0.84950   0.00000  Uiso   1.00
H5909  H     0.95235   0.50065   0.91700   0.00000  Uiso   1.00
H5910  H     0.92757   0.50310   0.92325   0.00000  Uiso   1.00
H5911  H     0.90560   0.74150   0.94100   0.00000  Uiso   1.00
H5912  H     0.90185   0.65225   0.81825   0.00000  Uiso   1.00
C5913  C     0.82020   0.59550   0.89950   0.00000  Uiso   1.00
C5914  C     0.80610   0.59475   0.90350   0.00000  Uiso   1.00
C5915  C     0.79735   0.56150   0.87900   0.00000  Uiso   1.00
C5916  C     0.78230   0.57175   0.87625   0.00000  Uiso   1.00
C5917  C     0.77500   0.59650   0.91000   0.00000  Uiso   1.00
C5918  C     0.77300   0.55300   0.84200   0.00000  Uiso   1.00
N5919  N     0.76097   0.59500   0.90025   0.00000  Uiso   1.00
N5920  N     0.75980   0.56950   0.84950   0.00000  Uiso   1.00
H5921  H     0.82735   0.62565   0.91700   0.00000  Uiso   1.00
H5922  H     0.80257   0.62810   0.92325   0.00000  Uiso   1.00
H5923  H     0.78060   0.61650   0.94100   0.00000  Uiso   1.00
H5924  H     0.77685   0.52725   0.81825   0.00000  Uiso   1.00
C5925  C     0.80480   0.72050   0.97550   0.00000  Uiso   1.00
C5926  C     0.81890   0.71975   0.97150   0.00000  Uiso   1.00
C5927  C     0.82765   0.68650   0.99600   0.00000  Uiso   1.00
C5928  C     0.84270   0.69675   0.99875   0.00000  Uiso   1.00
C5929  C     0.85000   0.72150   0.96500   0.00000  Uiso   1.00
C5930  C     0.85200   0.67800   0.78300   0.00000  Uiso   1.00
N5931  N     0.86402   0.72000   0.97475   0.00000  Uiso   1.00
N5932  N     0.86520   0.69450   0.77550   0.00000  Uiso   1.00
H5933  H     0.79765   0.50065   0.95800   0.00000  Uiso   1.00
H5934  H     0.82242   0.50310   0.95175   0.00000  Uiso   1.00
H5935  H     0.84440   0.74150   0.93400   0.00000  Uiso   1.00
H5936  H     0.84815   0.65225   0.80675   0.00000  Uiso   1.00
C5937  C     0.92980   0.59550   0.97550   0.00000  Uiso   1.00
C5938  C     0.94390   0.59475   0.97150   0.00000  Uiso   1.00
C5939  C     0.95265   0.56150   0.99600   0.00000  Uiso   1.00
C5940  C     0.96770   0.57175   0.99875   0.00000  Uiso   1.00
C5941  C     0.97500   0.59650   0.96500   0.00000  Uiso   1.00
C5942  C     0.97700   0.55300   0.78300   0.00000  Uiso   1.00
N5943  N     0.98902   0.59500   0.97475   0.00000  Uiso   1.00
N5944  N     0.99020   0.56950   0.77550   0.00000  Uiso   1.00
H5945  H     0.92265   0.62565   0.95800   0.00000  Uiso   1.00
H5946  H     0.94742   0.62810   0.95175   0.00000  Uiso   1.00
H5947  H     0.96940   0.61650   0.93400   0.00000  Uiso   1.00
H5948  H     0.97315   0.52725   0.80675   0.00000  Uiso   1.00
C5949  C     0.80480   0.52950   0.85050   0.00000  Uiso   1.00
C5950  C     0.81890   0.53025   0.84650   0.00000  Uiso   1.00
C5951  C     0.82765   0.56350   0.87100   0.00000  Uiso   1.00
C5952  C     0.84270   0.55325   0.87375   0.00000  Uiso   1.00
C5953  C     0.85000   0.52850   0.84000   0.00000  Uiso   1.00
C5954  C     0.85200   0.57200   0.90800   0.00000  Uiso   1.00
N5955  N     0.86402   0.53000   0.84975   0.00000  Uiso   1.00
N5956  N     0.86520   0.55550   0.90050   0.00000  Uiso   1.00
H5957  H     0.79765   0.74935   0.83300   0.00000  Uiso   1.00
H5958  H     0.82242   0.74690   0.82675   0.00000  Uiso   1.00
H5959  H     0.84440   0.50850   0.80900   0.00000  Uiso   1.00
H5960  H     0.84815   0.59775   0.93175   0.00000  Uiso   1.00
C5961  C     0.92980   0.65450   0.85050   0.00000  Uiso   1.00
C5962  C     0.94390   0.65525   0.84650   0.00000  Uiso   1.00
C5963  C     0.95265   0.68850   0.87100   0.00000  Uiso   1.00
C5964  C     0.96770   0.67825   0.87375   0.00000  Uiso   1.00
C5965  C     0.97500   0.65350   0.84000   0.00000  Uiso   1.00
C5966  C     0.97700   0.69700   0.90800   0.00000  Uiso   1.00
N5967  N     0.98902   0.65500   0.84975   0.00000  Uiso   1.00
N5968  N     0.99020   0.68050   0.90050   0.00000  Uiso   1.00
H5969  H     0.92265   0.62435   0.83300   0.00000  Uiso   1.00
H5970  H     0.94742   0.62190   0.82675   0.00000  Uiso   1.00
H5971  H     0.96940   0.63350   0.80900   0.00000  Uiso   1.00
H5972  H     0.97315   0.72275   0.93175   0.00000  Uiso   1.00
C5973  C     0.94520   0.52950   0.77450   0.00000  Uiso   1.00
C5974  C     0.93110   0.53025   0.77850   0.00000  Uiso   1.00
C5975  C     0.92235   0.56350   0.75400   0.00000  Uiso   1.00
C5976  C     0.90730   0.55325   0.75125   0.00000  Uiso   1.00
C5977  C     0.90000   0.52850   0.78500   0.00000  Uiso   1.00
C5978  C     0.89800   0.57200   0.96700   0.00000  Uiso   1.00
N5979  N     0.88597   0.53000   0.77525   0.00000  Uiso   1.00
N5980  N     0.88480   0.55550   0.97450   0.00000  Uiso   1.00
H5981  H     0.95235   0.74935   0.79200   0.00000  Uiso   1.00
H5982  H     0.92757   0.74690   0.79825   0.00000  Uiso   1.00
H5983  H     0.90560   0.50850   0.81600   0.00000  Uiso   1.00
H5984  H     0.90185   0.59775   0.94325   0.00000  Uiso   1.00
C5985  C     0.82020   0.65450   0.77450   0.00000  Uiso   1.00
C5986  C     0.80610   0.65525   0.77850   0.00000  Uiso   1.00
C5987  C     0.79735   0.68850   0.75400   0.00000  Uiso   1.00
C5988  C     0.78230   0.67825   0.75125   0.00000  Uiso   1.00
C5989  C     0.77500   0.65350   0.78500   0.00000  Uiso   1.00
C5990  C     0.77300   0.69700   0.96700   0.00000  Uiso   1.00
N5991  N     0.76097   0.65500   0.77525   0.00000  Uiso   1.00
N5992  N     0.75980   0.68050   0.97450   0.00000  Uiso   1.00
H5993  H     0.82735   0.62435   0.79200   0.00000  Uiso   1.00
H5994  H     0.80257   0.62190   0.79825   0.00000  Uiso   1.00
H5995  H     0.78060   0.63350   0.81600   0.00000  Uiso   1.00
H5996  H     0.77685   0.72275   0.94325   0.00000  Uiso   1.00
Co5997 Co    0.87500   0.50860   0.93750   0.00000  Uiso   1.00
Co5998 Co    0.75000   0.63360   0.93750   0.00000  Uiso   1.00
Co5999 Co    0.87500   0.74140   0.81250   0.00000  Uiso   1.00
Co6000 Co    0.75000   0.61640   0.81250   0.00000  Uiso   1.00
C6001  C     0.19520   0.97050   0.89950   0.00000  Uiso   1.00
C6002  C     0.18110   0.96975   0.90350   0.00000  Uiso   1.00
C6003  C     0.17235   0.93650   0.87900   0.00000  Uiso   1.00
C6004  C     0.15730   0.94675   0.87625   0.00000  Uiso   1.00
C6005  C     0.15000   0.97150   0.91000   0.00000  Uiso   1.00
C6006  C     0.14800   0.92800   0.84200   0.00000  Uiso   1.00
N6007  N     0.13598   0.97000   0.90025   0.00000  Uiso   1.00
N6008  N     0.13480   0.94450   0.84950   0.00000  Uiso   1.00
H6009  H     0.20235   0.75065   0.91700   0.00000  Uiso   1.00
H6010  H     0.17758   0.75310   0.92325   0.00000  Uiso   1.00
H6011  H     0.15560   0.99150   0.94100   0.00000  Uiso   1.00
H6012  H     0.15185   0.90225   0.81825   0.00000  Uiso   1.00
C6013  C     0.07020   0.84550   0.89950   0.00000  Uiso   1.00
C6014  C     0.05610   0.84475   0.90350   0.00000  Uiso   1.00
C6015  C     0.04735   0.81150   0.87900   0.00000  Uiso   1.00
C6016  C     0.03230   0.82175   0.87625   0.00000  Uiso   1.00
C6017  C     0.02500   0.84650   0.91000   0.00000  Uiso   1.00
C6018  C     0.02300   0.80300   0.84200   0.00000  Uiso   1.00
N6019  N     0.01098   0.84500   0.90025   0.00000  Uiso   1.00
N6020  N     0.00980   0.81950   0.84950   0.00000  Uiso   1.00
H6021  H     0.07735   0.87565   0.91700   0.00000  Uiso   1.00
H6022  H     0.05258   0.87810   0.92325   0.00000  Uiso   1.00
H6023  H     0.03060   0.86650   0.94100   0.00000  Uiso   1.00
H6024  H     0.02685   0.77725   0.81825   0.00000  Uiso   1.00
C6025  C     0.05480   0.97050   0.97550   0.00000  Uiso   1.00
C6026  C     0.06890   0.96975   0.97150   0.00000  Uiso   1.00
C6027  C     0.07765   0.93650   0.99600   0.00000  Uiso   1.00
C6028  C     0.09270   0.94675   0.99875   0.00000  Uiso   1.00
C6029  C     0.10000   0.97150   0.96500   0.00000  Uiso   1.00
C6030  C     0.10200   0.92800   0.78300   0.00000  Uiso   1.00
N6031  N     0.11403   0.97000   0.97475   0.00000  Uiso   1.00
N6032  N     0.11520   0.94450   0.77550   0.00000  Uiso   1.00
H6033  H     0.04765   0.75065   0.95800   0.00000  Uiso   1.00
H6034  H     0.07243   0.75310   0.95175   0.00000  Uiso   1.00
H6035  H     0.09440   0.99150   0.93400   0.00000  Uiso   1.00
H6036  H     0.09815   0.90225   0.80675   0.00000  Uiso   1.00
C6037  C     0.17980   0.84550   0.97550   0.00000  Uiso   1.00
C6038  C     0.19390   0.84475   0.97150   0.00000  Uiso   1.00
C6039  C     0.20265   0.81150   0.99600   0.00000  Uiso   1.00
C6040  C     0.21770   0.82175   0.99875   0.00000  Uiso   1.00
C6041  C     0.22500   0.84650   0.96500   0.00000  Uiso   1.00
C6042  C     0.22700   0.80300   0.78300   0.00000  Uiso   1.00
N6043  N     0.23902   0.84500   0.97475   0.00000  Uiso   1.00
N6044  N     0.24020   0.81950   0.77550   0.00000  Uiso   1.00
H6045  H     0.17265   0.87565   0.95800   0.00000  Uiso   1.00
H6046  H     0.19742   0.87810   0.95175   0.00000  Uiso   1.00
H6047  H     0.21940   0.86650   0.93400   0.00000  Uiso   1.00
H6048  H     0.22315   0.77725   0.80675   0.00000  Uiso   1.00
C6049  C     0.05480   0.77950   0.85050   0.00000  Uiso   1.00
C6050  C     0.06890   0.78025   0.84650   0.00000  Uiso   1.00
C6051  C     0.07765   0.81350   0.87100   0.00000  Uiso   1.00
C6052  C     0.09270   0.80325   0.87375   0.00000  Uiso   1.00
C6053  C     0.10000   0.77850   0.84000   0.00000  Uiso   1.00
C6054  C     0.10200   0.82200   0.90800   0.00000  Uiso   1.00
N6055  N     0.11403   0.78000   0.84975   0.00000  Uiso   1.00
N6056  N     0.11520   0.80550   0.90050   0.00000  Uiso   1.00
H6057  H     0.04765   0.99935   0.83300   0.00000  Uiso   1.00
H6058  H     0.07243   0.99690   0.82675   0.00000  Uiso   1.00
H6059  H     0.09440   0.75850   0.80900   0.00000  Uiso   1.00
H6060  H     0.09815   0.84775   0.93175   0.00000  Uiso   1.00
C6061  C     0.17980   0.90450   0.85050   0.00000  Uiso   1.00
C6062  C     0.19390   0.90525   0.84650   0.00000  Uiso   1.00
C6063  C     0.20265   0.93850   0.87100   0.00000  Uiso   1.00
C6064  C     0.21770   0.92825   0.87375   0.00000  Uiso   1.00
C6065  C     0.22500   0.90350   0.84000   0.00000  Uiso   1.00
C6066  C     0.22700   0.94700   0.90800   0.00000  Uiso   1.00
N6067  N     0.23902   0.90500   0.84975   0.00000  Uiso   1.00
N6068  N     0.24020   0.93050   0.90050   0.00000  Uiso   1.00
H6069  H     0.17265   0.87435   0.83300   0.00000  Uiso   1.00
H6070  H     0.19742   0.87190   0.82675   0.00000  Uiso   1.00
H6071  H     0.21940   0.88350   0.80900   0.00000  Uiso   1.00
H6072  H     0.22315   0.97275   0.93175   0.00000  Uiso   1.00
C6073  C     0.19520   0.77950   0.77450   0.00000  Uiso   1.00
C6074  C     0.18110   0.78025   0.77850   0.00000  Uiso   1.00
C6075  C     0.17235   0.81350   0.75400   0.00000  Uiso   1.00
C6076  C     0.15730   0.80325   0.75125   0.00000  Uiso   1.00
C6077  C     0.15000   0.77850   0.78500   0.00000  Uiso   1.00
C6078  C     0.14800   0.82200   0.96700   0.00000  Uiso   1.00
N6079  N     0.13598   0.78000   0.77525   0.00000  Uiso   1.00
N6080  N     0.13480   0.80550   0.97450   0.00000  Uiso   1.00
H6081  H     0.20235   0.99935   0.79200   0.00000  Uiso   1.00
H6082  H     0.17758   0.99690   0.79825   0.00000  Uiso   1.00
H6083  H     0.15560   0.75850   0.81600   0.00000  Uiso   1.00
H6084  H     0.15185   0.84775   0.94325   0.00000  Uiso   1.00
C6085  C     0.07020   0.90450   0.77450   0.00000  Uiso   1.00
C6086  C     0.05610   0.90525   0.77850   0.00000  Uiso   1.00
C6087  C     0.04735   0.93850   0.75400   0.00000  Uiso   1.00
C6088  C     0.03230   0.92825   0.75125   0.00000  Uiso   1.00
C6089  C     0.02500   0.90350   0.78500   0.00000  Uiso   1.00
C6090  C     0.02300   0.94700   0.96700   0.00000  Uiso   1.00
N6091  N     0.01098   0.90500   0.77525   0.00000  Uiso   1.00
N6092  N     0.00980   0.93050   0.97450   0.00000  Uiso   1.00
H6093  H     0.07735   0.87435   0.79200   0.00000  Uiso   1.00
H6094  H     0.05258   0.87190   0.79825   0.00000  Uiso   1.00
H6095  H     0.03060   0.88350   0.81600   0.00000  Uiso   1.00
H6096  H     0.02685   0.97275   0.94325   0.00000  Uiso   1.00
Co6097 Co    0.12500   0.75860   0.93750   0.00000  Uiso   1.00
Co6098 Co    0.00000   0.88360   0.93750   0.00000  Uiso   1.00
Co6099 Co    0.12500   0.99140   0.81250   0.00000  Uiso   1.00
Co6100 Co    0.00000   0.86640   0.81250   0.00000  Uiso   1.00
C6101  C     0.44520   0.97050   0.89950   0.00000  Uiso   1.00
C6102  C     0.43110   0.96975   0.90350   0.00000  Uiso   1.00
C6103  C     0.42235   0.93650   0.87900   0.00000  Uiso   1.00
C6104  C     0.40730   0.94675   0.87625   0.00000  Uiso   1.00
C6105  C     0.40000   0.97150   0.91000   0.00000  Uiso   1.00
C6106  C     0.39800   0.92800   0.84200   0.00000  Uiso   1.00
N6107  N     0.38597   0.97000   0.90025   0.00000  Uiso   1.00
N6108  N     0.38480   0.94450   0.84950   0.00000  Uiso   1.00
H6109  H     0.45235   0.75065   0.91700   0.00000  Uiso   1.00
H6110  H     0.42757   0.75310   0.92325   0.00000  Uiso   1.00
H6111  H     0.40560   0.99150   0.94100   0.00000  Uiso   1.00
H6112  H     0.40185   0.90225   0.81825   0.00000  Uiso   1.00
C6113  C     0.32020   0.84550   0.89950   0.00000  Uiso   1.00
C6114  C     0.30610   0.84475   0.90350   0.00000  Uiso   1.00
C6115  C     0.29735   0.81150   0.87900   0.00000  Uiso   1.00
C6116  C     0.28230   0.82175   0.87625   0.00000  Uiso   1.00
C6117  C     0.27500   0.84650   0.91000   0.00000  Uiso   1.00
C6118  C     0.27300   0.80300   0.84200   0.00000  Uiso   1.00
N6119  N     0.26098   0.84500   0.90025   0.00000  Uiso   1.00
N6120  N     0.25980   0.81950   0.84950   0.00000  Uiso   1.00
H6121  H     0.32735   0.87565   0.91700   0.00000  Uiso   1.00
H6122  H     0.30258   0.87810   0.92325   0.00000  Uiso   1.00
H6123  H     0.28060   0.86650   0.94100   0.00000  Uiso   1.00
H6124  H     0.27685   0.77725   0.81825   0.00000  Uiso   1.00
C6125  C     0.30480   0.97050   0.97550   0.00000  Uiso   1.00
C6126  C     0.31890   0.96975   0.97150   0.00000  Uiso   1.00
C6127  C     0.32765   0.93650   0.99600   0.00000  Uiso   1.00
C6128  C     0.34270   0.94675   0.99875   0.00000  Uiso   1.00
C6129  C     0.35000   0.97150   0.96500   0.00000  Uiso   1.00
C6130  C     0.35200   0.92800   0.78300   0.00000  Uiso   1.00
N6131  N     0.36402   0.97000   0.97475   0.00000  Uiso   1.00
N6132  N     0.36520   0.94450   0.77550   0.00000  Uiso   1.00
H6133  H     0.29765   0.75065   0.95800   0.00000  Uiso   1.00
H6134  H     0.32243   0.75310   0.95175   0.00000  Uiso   1.00
H6135  H     0.34440   0.99150   0.93400   0.00000  Uiso   1.00
H6136  H     0.34815   0.90225   0.80675   0.00000  Uiso   1.00
C6137  C     0.42980   0.84550   0.97550   0.00000  Uiso   1.00
C6138  C     0.44390   0.84475   0.97150   0.00000  Uiso   1.00
C6139  C     0.45265   0.81150   0.99600   0.00000  Uiso   1.00
C6140  C     0.46770   0.82175   0.99875   0.00000  Uiso   1.00
C6141  C     0.47500   0.84650   0.96500   0.00000  Uiso   1.00
C6142  C     0.47700   0.80300   0.78300   0.00000  Uiso   1.00
N6143  N     0.48902   0.84500   0.97475   0.00000  Uiso   1.00
N6144  N     0.49020   0.81950   0.77550   0.00000  Uiso   1.00
H6145  H     0.42265   0.87565   0.95800   0.00000  Uiso   1.00
H6146  H     0.44742   0.87810   0.95175   0.00000  Uiso   1.00
H6147  H     0.46940   0.86650   0.93400   0.00000  Uiso   1.00
H6148  H     0.47315   0.77725   0.80675   0.00000  Uiso   1.00
C6149  C     0.30480   0.77950   0.85050   0.00000  Uiso   1.00
C6150  C     0.31890   0.78025   0.84650   0.00000  Uiso   1.00
C6151  C     0.32765   0.81350   0.87100   0.00000  Uiso   1.00
C6152  C     0.34270   0.80325   0.87375   0.00000  Uiso   1.00
C6153  C     0.35000   0.77850   0.84000   0.00000  Uiso   1.00
C6154  C     0.35200   0.82200   0.90800   0.00000  Uiso   1.00
N6155  N     0.36402   0.78000   0.84975   0.00000  Uiso   1.00
N6156  N     0.36520   0.80550   0.90050   0.00000  Uiso   1.00
H6157  H     0.29765   0.99935   0.83300   0.00000  Uiso   1.00
H6158  H     0.32243   0.99690   0.82675   0.00000  Uiso   1.00
H6159  H     0.34440   0.75850   0.80900   0.00000  Uiso   1.00
H6160  H     0.34815   0.84775   0.93175   0.00000  Uiso   1.00
C6161  C     0.42980   0.90450   0.85050   0.00000  Uiso   1.00
C6162  C     0.44390   0.90525   0.84650   0.00000  Uiso   1.00
C6163  C     0.45265   0.93850   0.87100   0.00000  Uiso   1.00
C6164  C     0.46770   0.92825   0.87375   0.00000  Uiso   1.00
C6165  C     0.47500   0.90350   0.84000   0.00000  Uiso   1.00
C6166  C     0.47700   0.94700   0.90800   0.00000  Uiso   1.00
N6167  N     0.48902   0.90500   0.84975   0.00000  Uiso   1.00
N6168  N     0.49020   0.93050   0.90050   0.00000  Uiso   1.00
H6169  H     0.42265   0.87435   0.83300   0.00000  Uiso   1.00
H6170  H     0.44742   0.87190   0.82675   0.00000  Uiso   1.00
H6171  H     0.46940   0.88350   0.80900   0.00000  Uiso   1.00
H6172  H     0.47315   0.97275   0.93175   0.00000  Uiso   1.00
C6173  C     0.44520   0.77950   0.77450   0.00000  Uiso   1.00
C6174  C     0.43110   0.78025   0.77850   0.00000  Uiso   1.00
C6175  C     0.42235   0.81350   0.75400   0.00000  Uiso   1.00
C6176  C     0.40730   0.80325   0.75125   0.00000  Uiso   1.00
C6177  C     0.40000   0.77850   0.78500   0.00000  Uiso   1.00
C6178  C     0.39800   0.82200   0.96700   0.00000  Uiso   1.00
N6179  N     0.38597   0.78000   0.77525   0.00000  Uiso   1.00
N6180  N     0.38480   0.80550   0.97450   0.00000  Uiso   1.00
H6181  H     0.45235   0.99935   0.79200   0.00000  Uiso   1.00
H6182  H     0.42757   0.99690   0.79825   0.00000  Uiso   1.00
H6183  H     0.40560   0.75850   0.81600   0.00000  Uiso   1.00
H6184  H     0.40185   0.84775   0.94325   0.00000  Uiso   1.00
C6185  C     0.32020   0.90450   0.77450   0.00000  Uiso   1.00
C6186  C     0.30610   0.90525   0.77850   0.00000  Uiso   1.00
C6187  C     0.29735   0.93850   0.75400   0.00000  Uiso   1.00
C6188  C     0.28230   0.92825   0.75125   0.00000  Uiso   1.00
C6189  C     0.27500   0.90350   0.78500   0.00000  Uiso   1.00
C6190  C     0.27300   0.94700   0.96700   0.00000  Uiso   1.00
N6191  N     0.26098   0.90500   0.77525   0.00000  Uiso   1.00
N6192  N     0.25980   0.93050   0.97450   0.00000  Uiso   1.00
H6193  H     0.32735   0.87435   0.79200   0.00000  Uiso   1.00
H6194  H     0.30258   0.87190   0.79825   0.00000  Uiso   1.00
H6195  H     0.28060   0.88350   0.81600   0.00000  Uiso   1.00
H6196  H     0.27685   0.97275   0.94325   0.00000  Uiso   1.00
Co6197 Co    0.37500   0.75860   0.93750   0.00000  Uiso   1.00
Co6198 Co    0.25000   0.88360   0.93750   0.00000  Uiso   1.00
Co6199 Co    0.37500   0.99140   0.81250   0.00000  Uiso   1.00
Co6200 Co    0.25000   0.86640   0.81250   0.00000  Uiso   1.00
C6201  C     0.69520   0.97050   0.89950   0.00000  Uiso   1.00
C6202  C     0.68110   0.96975   0.90350   0.00000  Uiso   1.00
C6203  C     0.67235   0.93650   0.87900   0.00000  Uiso   1.00
C6204  C     0.65730   0.94675   0.87625   0.00000  Uiso   1.00
C6205  C     0.65000   0.97150   0.91000   0.00000  Uiso   1.00
C6206  C     0.64800   0.92800   0.84200   0.00000  Uiso   1.00
N6207  N     0.63597   0.97000   0.90025   0.00000  Uiso   1.00
N6208  N     0.63480   0.94450   0.84950   0.00000  Uiso   1.00
H6209  H     0.70235   0.75065   0.91700   0.00000  Uiso   1.00
H6210  H     0.67757   0.75310   0.92325   0.00000  Uiso   1.00
H6211  H     0.65560   0.99150   0.94100   0.00000  Uiso   1.00
H6212  H     0.65185   0.90225   0.81825   0.00000  Uiso   1.00
C6213  C     0.57020   0.84550   0.89950   0.00000  Uiso   1.00
C6214  C     0.55610   0.84475   0.90350   0.00000  Uiso   1.00
C6215  C     0.54735   0.81150   0.87900   0.00000  Uiso   1.00
C6216  C     0.53230   0.82175   0.87625   0.00000  Uiso   1.00
C6217  C     0.52500   0.84650   0.91000   0.00000  Uiso   1.00
C6218  C     0.52300   0.80300   0.84200   0.00000  Uiso   1.00
N6219  N     0.51098   0.84500   0.90025   0.00000  Uiso   1.00
N6220  N     0.50980   0.81950   0.84950   0.00000  Uiso   1.00
H6221  H     0.57735   0.87565   0.91700   0.00000  Uiso   1.00
H6222  H     0.55258   0.87810   0.92325   0.00000  Uiso   1.00
H6223  H     0.53060   0.86650   0.94100   0.00000  Uiso   1.00
H6224  H     0.52685   0.77725   0.81825   0.00000  Uiso   1.00
C6225  C     0.55480   0.97050   0.97550   0.00000  Uiso   1.00
C6226  C     0.56890   0.96975   0.97150   0.00000  Uiso   1.00
C6227  C     0.57765   0.93650   0.99600   0.00000  Uiso   1.00
C6228  C     0.59270   0.94675   0.99875   0.00000  Uiso   1.00
C6229  C     0.60000   0.97150   0.96500   0.00000  Uiso   1.00
C6230  C     0.60200   0.92800   0.78300   0.00000  Uiso   1.00
N6231  N     0.61402   0.97000   0.97475   0.00000  Uiso   1.00
N6232  N     0.61520   0.94450   0.77550   0.00000  Uiso   1.00
H6233  H     0.54765   0.75065   0.95800   0.00000  Uiso   1.00
H6234  H     0.57243   0.75310   0.95175   0.00000  Uiso   1.00
H6235  H     0.59440   0.99150   0.93400   0.00000  Uiso   1.00
H6236  H     0.59815   0.90225   0.80675   0.00000  Uiso   1.00
C6237  C     0.67980   0.84550   0.97550   0.00000  Uiso   1.00
C6238  C     0.69390   0.84475   0.97150   0.00000  Uiso   1.00
C6239  C     0.70265   0.81150   0.99600   0.00000  Uiso   1.00
C6240  C     0.71770   0.82175   0.99875   0.00000  Uiso   1.00
C6241  C     0.72500   0.84650   0.96500   0.00000  Uiso   1.00
C6242  C     0.72700   0.80300   0.78300   0.00000  Uiso   1.00
N6243  N     0.73902   0.84500   0.97475   0.00000  Uiso   1.00
N6244  N     0.74020   0.81950   0.77550   0.00000  Uiso   1.00
H6245  H     0.67265   0.87565   0.95800   0.00000  Uiso   1.00
H6246  H     0.69742   0.87810   0.95175   0.00000  Uiso   1.00
H6247  H     0.71940   0.86650   0.93400   0.00000  Uiso   1.00
H6248  H     0.72315   0.77725   0.80675   0.00000  Uiso   1.00
C6249  C     0.55480   0.77950   0.85050   0.00000  Uiso   1.00
C6250  C     0.56890   0.78025   0.84650   0.00000  Uiso   1.00
C6251  C     0.57765   0.81350   0.87100   0.00000  Uiso   1.00
C6252  C     0.59270   0.80325   0.87375   0.00000  Uiso   1.00
C6253  C     0.60000   0.77850   0.84000   0.00000  Uiso   1.00
C6254  C     0.60200   0.82200   0.90800   0.00000  Uiso   1.00
N6255  N     0.61402   0.78000   0.84975   0.00000  Uiso   1.00
N6256  N     0.61520   0.80550   0.90050   0.00000  Uiso   1.00
H6257  H     0.54765   0.99935   0.83300   0.00000  Uiso   1.00
H6258  H     0.57243   0.99690   0.82675   0.00000  Uiso   1.00
H6259  H     0.59440   0.75850   0.80900   0.00000  Uiso   1.00
H6260  H     0.59815   0.84775   0.93175   0.00000  Uiso   1.00
C6261  C     0.67980   0.90450   0.85050   0.00000  Uiso   1.00
C6262  C     0.69390   0.90525   0.84650   0.00000  Uiso   1.00
C6263  C     0.70265   0.93850   0.87100   0.00000  Uiso   1.00
C6264  C     0.71770   0.92825   0.87375   0.00000  Uiso   1.00
C6265  C     0.72500   0.90350   0.84000   0.00000  Uiso   1.00
C6266  C     0.72700   0.94700   0.90800   0.00000  Uiso   1.00
N6267  N     0.73902   0.90500   0.84975   0.00000  Uiso   1.00
N6268  N     0.74020   0.93050   0.90050   0.00000  Uiso   1.00
H6269  H     0.67265   0.87435   0.83300   0.00000  Uiso   1.00
H6270  H     0.69742   0.87190   0.82675   0.00000  Uiso   1.00
H6271  H     0.71940   0.88350   0.80900   0.00000  Uiso   1.00
H6272  H     0.72315   0.97275   0.93175   0.00000  Uiso   1.00
C6273  C     0.69520   0.77950   0.77450   0.00000  Uiso   1.00
C6274  C     0.68110   0.78025   0.77850   0.00000  Uiso   1.00
C6275  C     0.67235   0.81350   0.75400   0.00000  Uiso   1.00
C6276  C     0.65730   0.80325   0.75125   0.00000  Uiso   1.00
C6277  C     0.65000   0.77850   0.78500   0.00000  Uiso   1.00
C6278  C     0.64800   0.82200   0.96700   0.00000  Uiso   1.00
N6279  N     0.63597   0.78000   0.77525   0.00000  Uiso   1.00
N6280  N     0.63480   0.80550   0.97450   0.00000  Uiso   1.00
H6281  H     0.70235   0.99935   0.79200   0.00000  Uiso   1.00
H6282  H     0.67757   0.99690   0.79825   0.00000  Uiso   1.00
H6283  H     0.65560   0.75850   0.81600   0.00000  Uiso   1.00
H6284  H     0.65185   0.84775   0.94325   0.00000  Uiso   1.00
C6285  C     0.57020   0.90450   0.77450   0.00000  Uiso   1.00
C6286  C     0.55610   0.90525   0.77850   0.00000  Uiso   1.00
C6287  C     0.54735   0.93850   0.75400   0.00000  Uiso   1.00
C6288  C     0.53230   0.92825   0.75125   0.00000  Uiso   1.00
C6289  C     0.52500   0.90350   0.78500   0.00000  Uiso   1.00
C6290  C     0.52300   0.94700   0.96700   0.00000  Uiso   1.00
N6291  N     0.51098   0.90500   0.77525   0.00000  Uiso   1.00
N6292  N     0.50980   0.93050   0.97450   0.00000  Uiso   1.00
H6293  H     0.57735   0.87435   0.79200   0.00000  Uiso   1.00
H6294  H     0.55258   0.87190   0.79825   0.00000  Uiso   1.00
H6295  H     0.53060   0.88350   0.81600   0.00000  Uiso   1.00
H6296  H     0.52685   0.97275   0.94325   0.00000  Uiso   1.00
Co6297 Co    0.62500   0.75860   0.93750   0.00000  Uiso   1.00
Co6298 Co    0.50000   0.88360   0.93750   0.00000  Uiso   1.00
Co6299 Co    0.62500   0.99140   0.81250   0.00000  Uiso   1.00
Co6300 Co    0.50000   0.86640   0.81250   0.00000  Uiso   1.00
C6301  C     0.94520   0.97050   0.89950   0.00000  Uiso   1.00
C6302  C     0.93110   0.96975   0.90350   0.00000  Uiso   1.00
C6303  C     0.92235   0.93650   0.87900   0.00000  Uiso   1.00
C6304  C     0.90730   0.94675   0.87625   0.00000  Uiso   1.00
C6305  C     0.90000   0.97150   0.91000   0.00000  Uiso   1.00
C6306  C     0.89800   0.92800   0.84200   0.00000  Uiso   1.00
N6307  N     0.88597   0.97000   0.90025   0.00000  Uiso   1.00
N6308  N     0.88480   0.94450   0.84950   0.00000  Uiso   1.00
H6309  H     0.95235   0.75065   0.91700   0.00000  Uiso   1.00
H6310  H     0.92757   0.75310   0.92325   0.00000  Uiso   1.00
H6311  H     0.90560   0.99150   0.94100   0.00000  Uiso   1.00
H6312  H     0.90185   0.90225   0.81825   0.00000  Uiso   1.00
C6313  C     0.82020   0.84550   0.89950   0.00000  Uiso   1.00
C6314  C     0.80610   0.84475   0.90350   0.00000  Uiso   1.00
C6315  C     0.79735   0.81150   0.87900   0.00000  Uiso   1.00
C6316  C     0.78230   0.82175   0.87625   0.00000  Uiso   1.00
C6317  C     0.77500   0.84650   0.91000   0.00000  Uiso   1.00
C6318  C     0.77300   0.80300   0.84200   0.00000  Uiso   1.00
N6319  N     0.76097   0.84500   0.90025   0.00000  Uiso   1.00
N6320  N     0.75980   0.81950   0.84950   0.00000  Uiso   1.00
H6321  H     0.82735   0.87565   0.91700   0.00000  Uiso   1.00
H6322  H     0.80257   0.87810   0.92325   0.00000  Uiso   1.00
H6323  H     0.78060   0.86650   0.94100   0.00000  Uiso   1.00
H6324  H     0.77685   0.77725   0.81825   0.00000  Uiso   1.00
C6325  C     0.80480   0.97050   0.97550   0.00000  Uiso   1.00
C6326  C     0.81890   0.96975   0.97150   0.00000  Uiso   1.00
C6327  C     0.82765   0.93650   0.99600   0.00000  Uiso   1.00
C6328  C     0.84270   0.94675   0.99875   0.00000  Uiso   1.00
C6329  C     0.85000   0.97150   0.96500   0.00000  Uiso   1.00
C6330  C     0.85200   0.92800   0.78300   0.00000  Uiso   1.00
N6331  N     0.86402   0.97000   0.97475   0.00000  Uiso   1.00
N6332  N     0.86520   0.94450   0.77550   0.00000  Uiso   1.00
H6333  H     0.79765   0.75065   0.95800   0.00000  Uiso   1.00
H6334  H     0.82242   0.75310   0.95175   0.00000  Uiso   1.00
H6335  H     0.84440   0.99150   0.93400   0.00000  Uiso   1.00
H6336  H     0.84815   0.90225   0.80675   0.00000  Uiso   1.00
C6337  C     0.92980   0.84550   0.97550   0.00000  Uiso   1.00
C6338  C     0.94390   0.84475   0.97150   0.00000  Uiso   1.00
C6339  C     0.95265   0.81150   0.99600   0.00000  Uiso   1.00
C6340  C     0.96770   0.82175   0.99875   0.00000  Uiso   1.00
C6341  C     0.97500   0.84650   0.96500   0.00000  Uiso   1.00
C6342  C     0.97700   0.80300   0.78300   0.00000  Uiso   1.00
N6343  N     0.98902   0.84500   0.97475   0.00000  Uiso   1.00
N6344  N     0.99020   0.81950   0.77550   0.00000  Uiso   1.00
H6345  H     0.92265   0.87565   0.95800   0.00000  Uiso   1.00
H6346  H     0.94742   0.87810   0.95175   0.00000  Uiso   1.00
H6347  H     0.96940   0.86650   0.93400   0.00000  Uiso   1.00
H6348  H     0.97315   0.77725   0.80675   0.00000  Uiso   1.00
C6349  C     0.80480   0.77950   0.85050   0.00000  Uiso   1.00
C6350  C     0.81890   0.78025   0.84650   0.00000  Uiso   1.00
C6351  C     0.82765   0.81350   0.87100   0.00000  Uiso   1.00
C6352  C     0.84270   0.80325   0.87375   0.00000  Uiso   1.00
C6353  C     0.85000   0.77850   0.84000   0.00000  Uiso   1.00
C6354  C     0.85200   0.82200   0.90800   0.00000  Uiso   1.00
N6355  N     0.86402   0.78000   0.84975   0.00000  Uiso   1.00
N6356  N     0.86520   0.80550   0.90050   0.00000  Uiso   1.00
H6357  H     0.79765   0.99935   0.83300   0.00000  Uiso   1.00
H6358  H     0.82242   0.99690   0.82675   0.00000  Uiso   1.00
H6359  H     0.84440   0.75850   0.80900   0.00000  Uiso   1.00
H6360  H     0.84815   0.84775   0.93175   0.00000  Uiso   1.00
C6361  C     0.92980   0.90450   0.85050   0.00000  Uiso   1.00
C6362  C     0.94390   0.90525   0.84650   0.00000  Uiso   1.00
C6363  C     0.95265   0.93850   0.87100   0.00000  Uiso   1.00
C6364  C     0.96770   0.92825   0.87375   0.00000  Uiso   1.00
C6365  C     0.97500   0.90350   0.84000   0.00000  Uiso   1.00
C6366  C     0.97700   0.94700   0.90800   0.00000  Uiso   1.00
N6367  N     0.98902   0.90500   0.84975   0.00000  Uiso   1.00
N6368  N     0.99020   0.93050   0.90050   0.00000  Uiso   1.00
H6369  H     0.92265   0.87435   0.83300   0.00000  Uiso   1.00
H6370  H     0.94742   0.87190   0.82675   0.00000  Uiso   1.00
H6371  H     0.96940   0.88350   0.80900   0.00000  Uiso   1.00
H6372  H     0.97315   0.97275   0.93175   0.00000  Uiso   1.00
C6373  C     0.94520   0.77950   0.77450   0.00000  Uiso   1.00
C6374  C     0.93110   0.78025   0.77850   0.00000  Uiso   1.00
C6375  C     0.92235   0.81350   0.75400   0.00000  Uiso   1.00
C6376  C     0.90730   0.80325   0.75125   0.00000  Uiso   1.00
C6377  C     0.90000   0.77850   0.78500   0.00000  Uiso   1.00
C6378  C     0.89800   0.82200   0.96700   0.00000  Uiso   1.00
N6379  N     0.88597   0.78000   0.77525   0.00000  Uiso   1.00
N6380  N     0.88480   0.80550   0.97450   0.00000  Uiso   1.00
H6381  H     0.95235   0.99935   0.79200   0.00000  Uiso   1.00
H6382  H     0.92757   0.99690   0.79825   0.00000  Uiso   1.00
H6383  H     0.90560   0.75850   0.81600   0.00000  Uiso   1.00
H6384  H     0.90185   0.84775   0.94325   0.00000  Uiso   1.00
C6385  C     0.82020   0.90450   0.77450   0.00000  Uiso   1.00
C6386  C     0.80610   0.90525   0.77850   0.00000  Uiso   1.00
C6387  C     0.79735   0.93850   0.75400   0.00000  Uiso   1.00
C6388  C     0.78230   0.92825   0.75125   0.00000  Uiso   1.00
C6389  C     0.77500   0.90350   0.78500   0.00000  Uiso   1.00
C6390  C     0.77300   0.94700   0.96700   0.00000  Uiso   1.00
N6391  N     0.76097   0.90500   0.77525   0.00000  Uiso   1.00
N6392  N     0.75980   0.93050   0.97450   0.00000  Uiso   1.00
H6393  H     0.82735   0.87435   0.79200   0.00000  Uiso   1.00
H6394  H     0.80257   0.87190   0.79825   0.00000  Uiso   1.00
H6395  H     0.78060   0.88350   0.81600   0.00000  Uiso   1.00
H6396  H     0.77685   0.97275   0.94325   0.00000  Uiso   1.00
Co6397 Co    0.87500   0.75860   0.93750   0.00000  Uiso   1.00
Co6398 Co    0.75000   0.88360   0.93750   0.00000  Uiso   1.00
Co6399 Co    0.87500   0.99140   0.81250   0.00000  Uiso   1.00
Co6400 Co    0.75000   0.86640   0.81250   0.00000  Uiso   1.00
loop_
_geom_bond_atom_site_label_1
_geom_bond_atom_site_label_2
_geom_bond_distance
_geom_bond_site_symmetry_2
_ccdc_geom_bond_type
C1     C2      1.402   .     D
C1     H409    1.167   .     S
C1     C63     1.405   .     S
C2     C3      1.402   .     S
C2     H410    1.115   .     S
C3     C4      1.510   .     D
C3     C61     1.405   .     S
C4     C5      1.389   .     S
C4     C6      1.401   .     S
C5     N7      1.401   .     D
C5     H11     1.150   .     S
C6     N8      1.400   .     D
C6     H12     1.045   .     S
N7     N8      1.592   .     S
N7     Co497   1.857   .     S
N8     Co99    1.875   .     S
H9     C1201   1.167   1_545 S
H10    C1202   1.115   1_545 S
C13    C14     1.402   .     D
C13    H21     1.167   .     S
C13    C51     1.405   .     S
C14    C15     1.402   .     S
C14    H22     1.115   .     S
C15    C16     1.510   .     D
C15    C49     1.405   .     S
C16    C17     1.389   .     S
C16    C18     1.401   .     S
C17    N19     1.401   .     D
C17    H23     1.150   .     S
C18    N20     1.400   .     D
C18    H24     1.045   .     S
N19    N20     1.592   .     S
N19    Co98    1.857   .     S
N20    Co100   1.875   .     S
C25    C26     1.402   .     D
C25    H433    1.167   .     S
C25    C1687   1.405   .     S
C26    C27     1.402   .     S
C26    H434    1.115   .     S
C27    C28     1.510   .     D
C27    C1685   1.405   .     S
C28    C29     1.389   .     S
C28    C1630   1.401   .     S
C29    N31     1.401   .     D
C29    H35     1.150   .     S
C30    C4828   1.401   1_554 S
C30    N32     1.400   .     D
C30    H36     1.045   .     S
N31    N1632   1.592   .     S
N31    Co497   1.857   .     S
N32    N4831   1.592   1_554 S
N32    Co99    1.875   .     S
H33    C1225   1.167   1_545 S
H34    C1226   1.115   1_545 S
C37    C38     1.402   .     D
C37    H45     1.167   .     S
C37    C1675   1.405   .     S
C38    C39     1.402   .     S
C38    H46     1.115   .     S
C39    C40     1.510   .     D
C39    C1673   1.405   .     S
C40    C41     1.389   .     S
C40    C1642   1.401   .     S
C41    N43     1.401   .     D
C41    H47     1.150   .     S
C42    C4840   1.401   1_554 S
C42    N44     1.400   .     D
C42    H48     1.045   .     S
N43    N1644   1.592   .     S
N43    Co198   1.857   .     S
N44    N4843   1.592   1_554 S
N44    Co200   1.875   .     S
C49    C50     1.402   .     D
C49    H1257   1.167   1_545 S
C50    C51     1.402   .     S
C50    H1258   1.115   1_545 S
C51    C52     1.510   .     D
C52    C53     1.389   .     S
C52    C54     1.401   .     S
C53    N55     1.401   .     D
C53    H59     1.150   .     S
C54    N56     1.400   .     D
C54    H60     1.045   .     S
N55    N56     1.592   .     S
N55    Co1299  1.857   1_545 S
N56    Co97    1.875   .     S
H57    C449    1.167   .     S
H58    C450    1.115   .     S
C61    C62     1.402   .     D
C61    H69     1.167   .     S
C62    C63     1.402   .     S
C62    H70     1.115   .     S
C63    C64     1.510   .     D
C64    C65     1.389   .     S
C64    C66     1.401   .     S
C65    N67     1.401   .     D
C65    H71     1.150   .     S
C66    N68     1.400   .     D
C66    H72     1.045   .     S
N67    N68     1.592   .     S
N67    Co200   1.857   .     S
N68    Co198   1.875   .     S
C73    C74     1.402   .     D
C73    H1281   1.167   1_545 S
C73    C4839   1.405   1_554 S
C74    C75     1.402   .     S
C74    H1282   1.115   1_545 S
C75    C76     1.510   .     D
C75    C4837   1.405   1_554 S
C76    C77     1.389   .     S
C76    C4878   1.401   1_554 S
C77    N79     1.401   .     D
C77    H83     1.150   .     S
C78    C1676   1.401   .     S
C78    N80     1.400   .     D
C78    H84     1.045   .     S
N79    N4880   1.592   1_554 S
N79    Co1299  1.857   1_545 S
N80    N1679   1.592   .     S
N80    Co97    1.875   .     S
H81    C473    1.167   .     S
H82    C474    1.115   .     S
C85    C86     1.402   .     D
C85    H93     1.167   .     S
C85    C4827   1.405   1_554 S
C86    C87     1.402   .     S
C86    H94     1.115   .     S
C87    C88     1.510   .     D
C87    C4825   1.405   1_554 S
C88    C89     1.389   .     S
C88    C4890   1.401   1_554 S
C89    N91     1.401   .     D
C89    H95     1.150   .     S
C90    C1688   1.401   .     S
C90    N92     1.400   .     D
C90    H96     1.045   .     S
N91    N4892   1.592   1_554 S
N91    Co100   1.857   .     S
N92    N1691   1.592   .     S
N92    Co98    1.875   .     S
Co97   N1207   1.857   1_545 S
Co97   N1231   1.857   1_545 S
Co98   N343    1.857   1_455 S
Co98   N368    1.875   1_455 S
Co99   N455    1.857   .     S
Co99   N479    1.857   .     S
Co100  N367    1.857   1_455 S
Co100  N344    1.875   1_455 S
C101   C102    1.402   .     D
C101   H509    1.167   .     S
C101   C163    1.405   .     S
C102   C103    1.402   .     S
C102   H510    1.115   .     S
C103   C104    1.510   .     D
C103   C161    1.405   .     S
C104   C105    1.389   .     S
C104   C106    1.401   .     S
C105   N107    1.401   .     D
C105   H111    1.150   .     S
C106   N108    1.400   .     D
C106   H112    1.045   .     S
N107   N108    1.592   .     S
N107   Co597   1.857   .     S
N108   Co199   1.875   .     S
H109   C1301   1.167   1_545 S
H110   C1302   1.115   1_545 S
C113   C114    1.402   .     D
C113   H121    1.167   .     S
C113   C151    1.405   .     S
C114   C115    1.402   .     S
C114   H122    1.115   .     S
C115   C116    1.510   .     D
C115   C149    1.405   .     S
C116   C117    1.389   .     S
C116   C118    1.401   .     S
C117   N119    1.401   .     D
C117   H123    1.150   .     S
C118   N120    1.400   .     D
C118   H124    1.045   .     S
N119   N120    1.592   .     S
N119   Co198   1.857   .     S
N120   Co200   1.875   .     S
C125   C126    1.402   .     D
C125   H533    1.167   .     S
C125   C1787   1.405   .     S
C126   C127    1.402   .     S
C126   H534    1.115   .     S
C127   C128    1.510   .     D
C127   C1785   1.405   .     S
C128   C129    1.389   .     S
C128   C1730   1.401   .     S
C129   N131    1.401   .     D
C129   H135    1.150   .     S
C130   C4928   1.401   1_554 S
C130   N132    1.400   .     D
C130   H136    1.045   .     S
N131   N1732   1.592   .     S
N131   Co597   1.857   .     S
N132   N4931   1.592   1_554 S
N132   Co199   1.875   .     S
H133   C1325   1.167   1_545 S
H134   C1326   1.115   1_545 S
C137   C138    1.402   .     D
C137   H145    1.167   .     S
C137   C1775   1.405   .     S
C138   C139    1.402   .     S
C138   H146    1.115   .     S
C139   C140    1.510   .     D
C139   C1773   1.405   .     S
C140   C141    1.389   .     S
C140   C1742   1.401   .     S
C141   N143    1.401   .     D
C141   H147    1.150   .     S
C142   C4940   1.401   1_554 S
C142   N144    1.400   .     D
C142   H148    1.045   .     S
N143   N1744   1.592   .     S
N143   Co298   1.857   .     S
N144   N4943   1.592   1_554 S
N144   Co300   1.875   .     S
C149   C150    1.402   .     D
C149   H1357   1.167   1_545 S
C150   C151    1.402   .     S
C150   H1358   1.115   1_545 S
C151   C152    1.510   .     D
C152   C153    1.389   .     S
C152   C154    1.401   .     S
C153   N155    1.401   .     D
C153   H159    1.150   .     S
C154   N156    1.400   .     D
C154   H160    1.045   .     S
N155   N156    1.592   .     S
N155   Co1399  1.857   1_545 S
N156   Co197   1.875   .     S
H157   C549    1.167   .     S
H158   C550    1.115   .     S
C161   C162    1.402   .     D
C161   H169    1.167   .     S
C162   C163    1.402   .     S
C162   H170    1.115   .     S
C163   C164    1.510   .     D
C164   C165    1.389   .     S
C164   C166    1.401   .     S
C165   N167    1.401   .     D
C165   H171    1.150   .     S
C166   N168    1.400   .     D
C166   H172    1.045   .     S
N167   N168    1.592   .     S
N167   Co300   1.857   .     S
N168   Co298   1.875   .     S
C173   C174    1.402   .     D
C173   H1381   1.167   1_545 S
C173   C4939   1.405   1_554 S
C174   C175    1.402   .     S
C174   H1382   1.115   1_545 S
C175   C176    1.510   .     D
C175   C4937   1.405   1_554 S
C176   C177    1.389   .     S
C176   C4978   1.401   1_554 S
C177   N179    1.401   .     D
C177   H183    1.150   .     S
C178   C1776   1.401   .     S
C178   N180    1.400   .     D
C178   H184    1.045   .     S
N179   N4980   1.592   1_554 S
N179   Co1399  1.857   1_545 S
N180   N1779   1.592   .     S
N180   Co197   1.875   .     S
H181   C573    1.167   .     S
H182   C574    1.115   .     S
C185   C186    1.402   .     D
C185   H193    1.167   .     S
C185   C4927   1.405   1_554 S
C186   C187    1.402   .     S
C186   H194    1.115   .     S
C187   C188    1.510   .     D
C187   C4925   1.405   1_554 S
C188   C189    1.389   .     S
C188   C4990   1.401   1_554 S
C189   N191    1.401   .     D
C189   H195    1.150   .     S
C190   C1788   1.401   .     S
C190   N192    1.400   .     D
C190   H196    1.045   .     S
N191   N4992   1.592   1_554 S
N191   Co200   1.857   .     S
N192   N1791   1.592   .     S
N192   Co198   1.875   .     S
Co197  N1307   1.857   1_545 S
Co197  N1331   1.857   1_545 S
Co199  N555    1.857   .     S
Co199  N579    1.857   .     S
C201   C202    1.402   .     D
C201   H609    1.167   .     S
C201   C263    1.405   .     S
C202   C203    1.402   .     S
C202   H610    1.115   .     S
C203   C204    1.510   .     D
C203   C261    1.405   .     S
C204   C205    1.389   .     S
C204   C206    1.401   .     S
C205   N207    1.401   .     D
C205   H211    1.150   .     S
C206   N208    1.400   .     D
C206   H212    1.045   .     S
N207   N208    1.592   .     S
N207   Co697   1.857   .     S
N208   Co299   1.875   .     S
H209   C1401   1.167   1_545 S
H210   C1402   1.115   1_545 S
C213   C214    1.402   .     D
C213   H221    1.167   .     S
C213   C251    1.405   .     S
C214   C215    1.402   .     S
C214   H222    1.115   .     S
C215   C216    1.510   .     D
C215   C249    1.405   .     S
C216   C217    1.389   .     S
C216   C218    1.401   .     S
C217   N219    1.401   .     D
C217   H223    1.150   .     S
C218   N220    1.400   .     D
C218   H224    1.045   .     S
N219   N220    1.592   .     S
N219   Co298   1.857   .     S
N220   Co300   1.875   .     S
C225   C226    1.402   .     D
C225   H633    1.167   .     S
C225   C1887   1.405   .     S
C226   C227    1.402   .     S
C226   H634    1.115   .     S
C227   C228    1.510   .     D
C227   C1885   1.405   .     S
C228   C229    1.389   .     S
C228   C1830   1.401   .     S
C229   N231    1.401   .     D
C229   H235    1.150   .     S
C230   C5028   1.401   1_554 S
C230   N232    1.400   .     D
C230   H236    1.045   .     S
N231   N1832   1.592   .     S
N231   Co697   1.857   .     S
N232   N5031   1.592   1_554 S
N232   Co299   1.875   .     S
H233   C1425   1.167   1_545 S
H234   C1426   1.115   1_545 S
C237   C238    1.402   .     D
C237   H245    1.167   .     S
C237   C1875   1.405   .     S
C238   C239    1.402   .     S
C238   H246    1.115   .     S
C239   C240    1.510   .     D
C239   C1873   1.405   .     S
C240   C241    1.389   .     S
C240   C1842   1.401   .     S
C241   N243    1.401   .     D
C241   H247    1.150   .     S
C242   C5040   1.401   1_554 S
C242   N244    1.400   .     D
C242   H248    1.045   .     S
N243   N1844   1.592   .     S
N243   Co398   1.857   .     S
N244   N5043   1.592   1_554 S
N244   Co400   1.875   .     S
C249   C250    1.402   .     D
C249   H1457   1.167   1_545 S
C250   C251    1.402   .     S
C250   H1458   1.115   1_545 S
C251   C252    1.510   .     D
C252   C253    1.389   .     S
C252   C254    1.401   .     S
C253   N255    1.401   .     D
C253   H259    1.150   .     S
C254   N256    1.400   .     D
C254   H260    1.045   .     S
N255   N256    1.592   .     S
N255   Co1499  1.857   1_545 S
N256   Co297   1.875   .     S
H257   C649    1.167   .     S
H258   C650    1.115   .     S
C261   C262    1.402   .     D
C261   H269    1.167   .     S
C262   C263    1.402   .     S
C262   H270    1.115   .     S
C263   C264    1.510   .     D
C264   C265    1.389   .     S
C264   C266    1.401   .     S
C265   N267    1.401   .     D
C265   H271    1.150   .     S
C266   N268    1.400   .     D
C266   H272    1.045   .     S
N267   N268    1.592   .     S
N267   Co400   1.857   .     S
N268   Co398   1.875   .     S
C273   C274    1.402   .     D
C273   H1481   1.167   1_545 S
C273   C5039   1.405   1_554 S
C274   C275    1.402   .     S
C274   H1482   1.115   1_545 S
C275   C276    1.510   .     D
C275   C5037   1.405   1_554 S
C276   C277    1.389   .     S
C276   C5078   1.401   1_554 S
C277   N279    1.401   .     D
C277   H283    1.150   .     S
C278   C1876   1.401   .     S
C278   N280    1.400   .     D
C278   H284    1.045   .     S
N279   N5080   1.592   1_554 S
N279   Co1499  1.857   1_545 S
N280   N1879   1.592   .     S
N280   Co297   1.875   .     S
H281   C673    1.167   .     S
H282   C674    1.115   .     S
C285   C286    1.402   .     D
C285   H293    1.167   .     S
C285   C5027   1.405   1_554 S
C286   C287    1.402   .     S
C286   H294    1.115   .     S
C287   C288    1.510   .     D
C287   C5025   1.405   1_554 S
C288   C289    1.389   .     S
C288   C5090   1.401   1_554 S
C289   N291    1.401   .     D
C289   H295    1.150   .     S
C290   C1888   1.401   .     S
C290   N292    1.400   .     D
C290   H296    1.045   .     S
N291   N5092   1.592   1_554 S
N291   Co300   1.857   .     S
N292   N1891   1.592   .     S
N292   Co298   1.875   .     S
Co297  N1407   1.857   1_545 S
Co297  N1431   1.857   1_545 S
Co299  N655    1.857   .     S
Co299  N679    1.857   .     S
C301   C302    1.402   .     D
C301   H709    1.167   .     S
C301   C363    1.405   .     S
C302   C303    1.402   .     S
C302   H710    1.115   .     S
C303   C304    1.510   .     D
C303   C361    1.405   .     S
C304   C305    1.389   .     S
C304   C306    1.401   .     S
C305   N307    1.401   .     D
C305   H311    1.150   .     S
C306   N308    1.400   .     D
C306   H312    1.045   .     S
N307   N308    1.592   .     S
N307   Co797   1.857   .     S
N308   Co399   1.875   .     S
H309   C1501   1.167   1_545 S
H310   C1502   1.115   1_545 S
C313   C314    1.402   .     D
C313   H321    1.167   .     S
C313   C351    1.405   .     S
C314   C315    1.402   .     S
C314   H322    1.115   .     S
C315   C316    1.510   .     D
C315   C349    1.405   .     S
C316   C317    1.389   .     S
C316   C318    1.401   .     S
C317   N319    1.401   .     D
C317   H323    1.150   .     S
C318   N320    1.400   .     D
C318   H324    1.045   .     S
N319   N320    1.592   .     S
N319   Co398   1.857   .     S
N320   Co400   1.875   .     S
C325   C326    1.402   .     D
C325   H733    1.167   .     S
C325   C1987   1.405   .     S
C326   C327    1.402   .     S
C326   H734    1.115   .     S
C327   C328    1.510   .     D
C327   C1985   1.405   .     S
C328   C329    1.389   .     S
C328   C1930   1.401   .     S
C329   N331    1.401   .     D
C329   H335    1.150   .     S
C330   C5128   1.401   1_554 S
C330   N332    1.400   .     D
C330   H336    1.045   .     S
N331   N1932   1.592   .     S
N331   Co797   1.857   .     S
N332   N5131   1.592   1_554 S
N332   Co399   1.875   .     S
H333   C1525   1.167   1_545 S
H334   C1526   1.115   1_545 S
C337   C338    1.402   .     D
C337   H345    1.167   .     S
C337   C1975   1.405   .     S
C338   C339    1.402   .     S
C338   H346    1.115   .     S
C339   C340    1.510   .     D
C339   C1973   1.405   .     S
C340   C341    1.389   .     S
C340   C1942   1.401   .     S
C341   N343    1.401   .     D
C341   H347    1.150   .     S
C342   C5140   1.401   1_554 S
C342   N344    1.400   .     D
C342   H348    1.045   .     S
N343   N1944   1.592   .     S
N343   Co98    1.857   1_655 S
N344   N5143   1.592   1_554 S
N344   Co100   1.875   1_655 S
C349   C350    1.402   .     D
C349   H1557   1.167   1_545 S
C350   C351    1.402   .     S
C350   H1558   1.115   1_545 S
C351   C352    1.510   .     D
C352   C353    1.389   .     S
C352   C354    1.401   .     S
C353   N355    1.401   .     D
C353   H359    1.150   .     S
C354   N356    1.400   .     D
C354   H360    1.045   .     S
N355   N356    1.592   .     S
N355   Co1599  1.857   1_545 S
N356   Co397   1.875   .     S
H357   C749    1.167   .     S
H358   C750    1.115   .     S
C361   C362    1.402   .     D
C361   H369    1.167   .     S
C362   C363    1.402   .     S
C362   H370    1.115   .     S
C363   C364    1.510   .     D
C364   C365    1.389   .     S
C364   C366    1.401   .     S
C365   N367    1.401   .     D
C365   H371    1.150   .     S
C366   N368    1.400   .     D
C366   H372    1.045   .     S
N367   N368    1.592   .     S
N367   Co100   1.857   1_655 S
N368   Co98    1.875   1_655 S
C373   C374    1.402   .     D
C373   H1581   1.167   1_545 S
C373   C5139   1.405   1_554 S
C374   C375    1.402   .     S
C374   H1582   1.115   1_545 S
C375   C376    1.510   .     D
C375   C5137   1.405   1_554 S
C376   C377    1.389   .     S
C376   C5178   1.401   1_554 S
C377   N379    1.401   .     D
C377   H383    1.150   .     S
C378   C1976   1.401   .     S
C378   N380    1.400   .     D
C378   H384    1.045   .     S
N379   N5180   1.592   1_554 S
N379   Co1599  1.857   1_545 S
N380   N1979   1.592   .     S
N380   Co397   1.875   .     S
H381   C773    1.167   .     S
H382   C774    1.115   .     S
C385   C386    1.402   .     D
C385   H393    1.167   .     S
C385   C5127   1.405   1_554 S
C386   C387    1.402   .     S
C386   H394    1.115   .     S
C387   C388    1.510   .     D
C387   C5125   1.405   1_554 S
C388   C389    1.389   .     S
C388   C5190   1.401   1_554 S
C389   N391    1.401   .     D
C389   H395    1.150   .     S
C390   C1988   1.401   .     S
C390   N392    1.400   .     D
C390   H396    1.045   .     S
N391   N5192   1.592   1_554 S
N391   Co400   1.857   .     S
N392   N1991   1.592   .     S
N392   Co398   1.875   .     S
Co397  N1507   1.857   1_545 S
Co397  N1531   1.857   1_545 S
Co399  N755    1.857   .     S
Co399  N779    1.857   .     S
C401   C402    1.402   .     D
C401   H809    1.167   .     S
C401   C463    1.405   .     S
C402   C403    1.402   .     S
C402   H810    1.115   .     S
C403   C404    1.510   .     D
C403   C461    1.405   .     S
C404   C405    1.389   .     S
C404   C406    1.401   .     S
C405   N407    1.401   .     D
C405   H411    1.150   .     S
C406   N408    1.400   .     D
C406   H412    1.045   .     S
N407   N408    1.592   .     S
N407   Co897   1.857   .     S
N408   Co499   1.875   .     S
C413   C414    1.402   .     D
C413   H421    1.167   .     S
C413   C451    1.405   .     S
C414   C415    1.402   .     S
C414   H422    1.115   .     S
C415   C416    1.510   .     D
C415   C449    1.405   .     S
C416   C417    1.389   .     S
C416   C418    1.401   .     S
C417   N419    1.401   .     D
C417   H423    1.150   .     S
C418   N420    1.400   .     D
C418   H424    1.045   .     S
N419   N420    1.592   .     S
N419   Co498   1.857   .     S
N420   Co500   1.875   .     S
C425   C426    1.402   .     D
C425   H833    1.167   .     S
C425   C2087   1.405   .     S
C426   C427    1.402   .     S
C426   H834    1.115   .     S
C427   C428    1.510   .     D
C427   C2085   1.405   .     S
C428   C429    1.389   .     S
C428   C2030   1.401   .     S
C429   N431    1.401   .     D
C429   H435    1.150   .     S
C430   C5228   1.401   1_554 S
C430   N432    1.400   .     D
C430   H436    1.045   .     S
N431   N2032   1.592   .     S
N431   Co897   1.857   .     S
N432   N5231   1.592   1_554 S
N432   Co499   1.875   .     S
C437   C438    1.402   .     D
C437   H445    1.167   .     S
C437   C2075   1.405   .     S
C438   C439    1.402   .     S
C438   H446    1.115   .     S
C439   C440    1.510   .     D
C439   C2073   1.405   .     S
C440   C441    1.389   .     S
C440   C2042   1.401   .     S
C441   N443    1.401   .     D
C441   H447    1.150   .     S
C442   C5240   1.401   1_554 S
C442   N444    1.400   .     D
C442   H448    1.045   .     S
N443   N2044   1.592   .     S
N443   Co598   1.857   .     S
N444   N5243   1.592   1_554 S
N444   Co600   1.875   .     S
C449   C450    1.402   .     D
C450   C451    1.402   .     S
C451   C452    1.510   .     D
C452   C453    1.389   .     S
C452   C454    1.401   .     S
C453   N455    1.401   .     D
C453   H459    1.150   .     S
C454   N456    1.400   .     D
C454   H460    1.045   .     S
N455   N456    1.592   .     S
N456   Co497   1.875   .     S
H457   C849    1.167   .     S
H458   C850    1.115   .     S
C461   C462    1.402   .     D
C461   H469    1.167   .     S
C462   C463    1.402   .     S
C462   H470    1.115   .     S
C463   C464    1.510   .     D
C464   C465    1.389   .     S
C464   C466    1.401   .     S
C465   N467    1.401   .     D
C465   H471    1.150   .     S
C466   N468    1.400   .     D
C466   H472    1.045   .     S
N467   N468    1.592   .     S
N467   Co600   1.857   .     S
N468   Co598   1.875   .     S
C473   C474    1.402   .     D
C473   C5239   1.405   1_554 S
C474   C475    1.402   .     S
C475   C476    1.510   .     D
C475   C5237   1.405   1_554 S
C476   C477    1.389   .     S
C476   C5278   1.401   1_554 S
C477   N479    1.401   .     D
C477   H483    1.150   .     S
C478   C2076   1.401   .     S
C478   N480    1.400   .     D
C478   H484    1.045   .     S
N479   N5280   1.592   1_554 S
N480   N2079   1.592   .     S
N480   Co497   1.875   .     S
H481   C873    1.167   .     S
H482   C874    1.115   .     S
C485   C486    1.402   .     D
C485   H493    1.167   .     S
C485   C5227   1.405   1_554 S
C486   C487    1.402   .     S
C486   H494    1.115   .     S
C487   C488    1.510   .     D
C487   C5225   1.405   1_554 S
C488   C489    1.389   .     S
C488   C5290   1.401   1_554 S
C489   N491    1.401   .     D
C489   H495    1.150   .     S
C490   C2088   1.401   .     S
C490   N492    1.400   .     D
C490   H496    1.045   .     S
N491   N5292   1.592   1_554 S
N491   Co500   1.857   .     S
N492   N2091   1.592   .     S
N492   Co498   1.875   .     S
Co498  N743    1.857   1_455 S
Co498  N768    1.875   1_455 S
Co499  N855    1.857   .     S
Co499  N879    1.857   .     S
Co500  N767    1.857   1_455 S
Co500  N744    1.875   1_455 S
C501   C502    1.402   .     D
C501   H909    1.167   .     S
C501   C563    1.405   .     S
C502   C503    1.402   .     S
C502   H910    1.115   .     S
C503   C504    1.510   .     D
C503   C561    1.405   .     S
C504   C505    1.389   .     S
C504   C506    1.401   .     S
C505   N507    1.401   .     D
C505   H511    1.150   .     S
C506   N508    1.400   .     D
C506   H512    1.045   .     S
N507   N508    1.592   .     S
N507   Co997   1.857   .     S
N508   Co599   1.875   .     S
C513   C514    1.402   .     D
C513   H521    1.167   .     S
C513   C551    1.405   .     S
C514   C515    1.402   .     S
C514   H522    1.115   .     S
C515   C516    1.510   .     D
C515   C549    1.405   .     S
C516   C517    1.389   .     S
C516   C518    1.401   .     S
C517   N519    1.401   .     D
C517   H523    1.150   .     S
C518   N520    1.400   .     D
C518   H524    1.045   .     S
N519   N520    1.592   .     S
N519   Co598   1.857   .     S
N520   Co600   1.875   .     S
C525   C526    1.402   .     D
C525   H933    1.167   .     S
C525   C2187   1.405   .     S
C526   C527    1.402   .     S
C526   H934    1.115   .     S
C527   C528    1.510   .     D
C527   C2185   1.405   .     S
C528   C529    1.389   .     S
C528   C2130   1.401   .     S
C529   N531    1.401   .     D
C529   H535    1.150   .     S
C530   C5328   1.401   1_554 S
C530   N532    1.400   .     D
C530   H536    1.045   .     S
N531   N2132   1.592   .     S
N531   Co997   1.857   .     S
N532   N5331   1.592   1_554 S
N532   Co599   1.875   .     S
C537   C538    1.402   .     D
C537   H545    1.167   .     S
C537   C2175   1.405   .     S
C538   C539    1.402   .     S
C538   H546    1.115   .     S
C539   C540    1.510   .     D
C539   C2173   1.405   .     S
C540   C541    1.389   .     S
C540   C2142   1.401   .     S
C541   N543    1.401   .     D
C541   H547    1.150   .     S
C542   C5340   1.401   1_554 S
C542   N544    1.400   .     D
C542   H548    1.045   .     S
N543   N2144   1.592   .     S
N543   Co698   1.857   .     S
N544   N5343   1.592   1_554 S
N544   Co700   1.875   .     S
C549   C550    1.402   .     D
C550   C551    1.402   .     S
C551   C552    1.510   .     D
C552   C553    1.389   .     S
C552   C554    1.401   .     S
C553   N555    1.401   .     D
C553   H559    1.150   .     S
C554   N556    1.400   .     D
C554   H560    1.045   .     S
N555   N556    1.592   .     S
N556   Co597   1.875   .     S
H557   C949    1.167   .     S
H558   C950    1.115   .     S
C561   C562    1.402   .     D
C561   H569    1.167   .     S
C562   C563    1.402   .     S
C562   H570    1.115   .     S
C563   C564    1.510   .     D
C564   C565    1.389   .     S
C564   C566    1.401   .     S
C565   N567    1.401   .     D
C565   H571    1.150   .     S
C566   N568    1.400   .     D
C566   H572    1.045   .     S
N567   N568    1.592   .     S
N567   Co700   1.857   .     S
N568   Co698   1.875   .     S
C573   C574    1.402   .     D
C573   C5339   1.405   1_554 S
C574   C575    1.402   .     S
C575   C576    1.510   .     D
C575   C5337   1.405   1_554 S
C576   C577    1.389   .     S
C576   C5378   1.401   1_554 S
C577   N579    1.401   .     D
C577   H583    1.150   .     S
C578   C2176   1.401   .     S
C578   N580    1.400   .     D
C578   H584    1.045   .     S
N579   N5380   1.592   1_554 S
N580   N2179   1.592   .     S
N580   Co597   1.875   .     S
H581   C973    1.167   .     S
H582   C974    1.115   .     S
C585   C586    1.402   .     D
C585   H593    1.167   .     S
C585   C5327   1.405   1_554 S
C586   C587    1.402   .     S
C586   H594    1.115   .     S
C587   C588    1.510   .     D
C587   C5325   1.405   1_554 S
C588   C589    1.389   .     S
C588   C5390   1.401   1_554 S
C589   N591    1.401   .     D
C589   H595    1.150   .     S
C590   C2188   1.401   .     S
C590   N592    1.400   .     D
C590   H596    1.045   .     S
N591   N5392   1.592   1_554 S
N591   Co600   1.857   .     S
N592   N2191   1.592   .     S
N592   Co598   1.875   .     S
Co599  N955    1.857   .     S
Co599  N979    1.857   .     S
C601   C602    1.402   .     D
C601   H1009   1.167   .     S
C601   C663    1.405   .     S
C602   C603    1.402   .     S
C602   H1010   1.115   .     S
C603   C604    1.510   .     D
C603   C661    1.405   .     S
C604   C605    1.389   .     S
C604   C606    1.401   .     S
C605   N607    1.401   .     D
C605   H611    1.150   .     S
C606   N608    1.400   .     D
C606   H612    1.045   .     S
N607   N608    1.592   .     S
N607   Co1097  1.857   .     S
N608   Co699   1.875   .     S
C613   C614    1.402   .     D
C613   H621    1.167   .     S
C613   C651    1.405   .     S
C614   C615    1.402   .     S
C614   H622    1.115   .     S
C615   C616    1.510   .     D
C615   C649    1.405   .     S
C616   C617    1.389   .     S
C616   C618    1.401   .     S
C617   N619    1.401   .     D
C617   H623    1.150   .     S
C618   N620    1.400   .     D
C618   H624    1.045   .     S
N619   N620    1.592   .     S
N619   Co698   1.857   .     S
N620   Co700   1.875   .     S
C625   C626    1.402   .     D
C625   H1033   1.167   .     S
C625   C2287   1.405   .     S
C626   C627    1.402   .     S
C626   H1034   1.115   .     S
C627   C628    1.510   .     D
C627   C2285   1.405   .     S
C628   C629    1.389   .     S
C628   C2230   1.401   .     S
C629   N631    1.401   .     D
C629   H635    1.150   .     S
C630   C5428   1.401   1_554 S
C630   N632    1.400   .     D
C630   H636    1.045   .     S
N631   N2232   1.592   .     S
N631   Co1097  1.857   .     S
N632   N5431   1.592   1_554 S
N632   Co699   1.875   .     S
C637   C638    1.402   .     D
C637   H645    1.167   .     S
C637   C2275   1.405   .     S
C638   C639    1.402   .     S
C638   H646    1.115   .     S
C639   C640    1.510   .     D
C639   C2273   1.405   .     S
C640   C641    1.389   .     S
C640   C2242   1.401   .     S
C641   N643    1.401   .     D
C641   H647    1.150   .     S
C642   C5440   1.401   1_554 S
C642   N644    1.400   .     D
C642   H648    1.045   .     S
N643   N2244   1.592   .     S
N643   Co798   1.857   .     S
N644   N5443   1.592   1_554 S
N644   Co800   1.875   .     S
C649   C650    1.402   .     D
C650   C651    1.402   .     S
C651   C652    1.510   .     D
C652   C653    1.389   .     S
C652   C654    1.401   .     S
C653   N655    1.401   .     D
C653   H659    1.150   .     S
C654   N656    1.400   .     D
C654   H660    1.045   .     S
N655   N656    1.592   .     S
N656   Co697   1.875   .     S
H657   C1049   1.167   .     S
H658   C1050   1.115   .     S
C661   C662    1.402   .     D
C661   H669    1.167   .     S
C662   C663    1.402   .     S
C662   H670    1.115   .     S
C663   C664    1.510   .     D
C664   C665    1.389   .     S
C664   C666    1.401   .     S
C665   N667    1.401   .     D
C665   H671    1.150   .     S
C666   N668    1.400   .     D
C666   H672    1.045   .     S
N667   N668    1.592   .     S
N667   Co800   1.857   .     S
N668   Co798   1.875   .     S
C673   C674    1.402   .     D
C673   C5439   1.405   1_554 S
C674   C675    1.402   .     S
C675   C676    1.510   .     D
C675   C5437   1.405   1_554 S
C676   C677    1.389   .     S
C676   C5478   1.401   1_554 S
C677   N679    1.401   .     D
C677   H683    1.150   .     S
C678   C2276   1.401   .     S
C678   N680    1.400   .     D
C678   H684    1.045   .     S
N679   N5480   1.592   1_554 S
N680   N2279   1.592   .     S
N680   Co697   1.875   .     S
H681   C1073   1.167   .     S
H682   C1074   1.115   .     S
C685   C686    1.402   .     D
C685   H693    1.167   .     S
C685   C5427   1.405   1_554 S
C686   C687    1.402   .     S
C686   H694    1.115   .     S
C687   C688    1.510   .     D
C687   C5425   1.405   1_554 S
C688   C689    1.389   .     S
C688   C5490   1.401   1_554 S
C689   N691    1.401   .     D
C689   H695    1.150   .     S
C690   C2288   1.401   .     S
C690   N692    1.400   .     D
C690   H696    1.045   .     S
N691   N5492   1.592   1_554 S
N691   Co700   1.857   .     S
N692   N2291   1.592   .     S
N692   Co698   1.875   .     S
Co699  N1055   1.857   .     S
Co699  N1079   1.857   .     S
C701   C702    1.402   .     D
C701   H1109   1.167   .     S
C701   C763    1.405   .     S
C702   C703    1.402   .     S
C702   H1110   1.115   .     S
C703   C704    1.510   .     D
C703   C761    1.405   .     S
C704   C705    1.389   .     S
C704   C706    1.401   .     S
C705   N707    1.401   .     D
C705   H711    1.150   .     S
C706   N708    1.400   .     D
C706   H712    1.045   .     S
N707   N708    1.592   .     S
N707   Co1197  1.857   .     S
N708   Co799   1.875   .     S
C713   C714    1.402   .     D
C713   H721    1.167   .     S
C713   C751    1.405   .     S
C714   C715    1.402   .     S
C714   H722    1.115   .     S
C715   C716    1.510   .     D
C715   C749    1.405   .     S
C716   C717    1.389   .     S
C716   C718    1.401   .     S
C717   N719    1.401   .     D
C717   H723    1.150   .     S
C718   N720    1.400   .     D
C718   H724    1.045   .     S
N719   N720    1.592   .     S
N719   Co798   1.857   .     S
N720   Co800   1.875   .     S
C725   C726    1.402   .     D
C725   H1133   1.167   .     S
C725   C2387   1.405   .     S
C726   C727    1.402   .     S
C726   H1134   1.115   .     S
C727   C728    1.510   .     D
C727   C2385   1.405   .     S
C728   C729    1.389   .     S
C728   C2330   1.401   .     S
C729   N731    1.401   .     D
C729   H735    1.150   .     S
C730   C5528   1.401   1_554 S
C730   N732    1.400   .     D
C730   H736    1.045   .     S
N731   N2332   1.592   .     S
N731   Co1197  1.857   .     S
N732   N5531   1.592   1_554 S
N732   Co799   1.875   .     S
C737   C738    1.402   .     D
C737   H745    1.167   .     S
C737   C2375   1.405   .     S
C738   C739    1.402   .     S
C738   H746    1.115   .     S
C739   C740    1.510   .     D
C739   C2373   1.405   .     S
C740   C741    1.389   .     S
C740   C2342   1.401   .     S
C741   N743    1.401   .     D
C741   H747    1.150   .     S
C742   C5540   1.401   1_554 S
C742   N744    1.400   .     D
C742   H748    1.045   .     S
N743   N2344   1.592   .     S
N743   Co498   1.857   1_655 S
N744   N5543   1.592   1_554 S
N744   Co500   1.875   1_655 S
C749   C750    1.402   .     D
C750   C751    1.402   .     S
C751   C752    1.510   .     D
C752   C753    1.389   .     S
C752   C754    1.401   .     S
C753   N755    1.401   .     D
C753   H759    1.150   .     S
C754   N756    1.400   .     D
C754   H760    1.045   .     S
N755   N756    1.592   .     S
N756   Co797   1.875   .     S
H757   C1149   1.167   .     S
H758   C1150   1.115   .     S
C761   C762    1.402   .     D
C761   H769    1.167   .     S
C762   C763    1.402   .     S
C762   H770    1.115   .     S
C763   C764    1.510   .     D
C764   C765    1.389   .     S
C764   C766    1.401   .     S
C765   N767    1.401   .     D
C765   H771    1.150   .     S
C766   N768    1.400   .     D
C766   H772    1.045   .     S
N767   N768    1.592   .     S
N767   Co500   1.857   1_655 S
N768   Co498   1.875   1_655 S
C773   C774    1.402   .     D
C773   C5539   1.405   1_554 S
C774   C775    1.402   .     S
C775   C776    1.510   .     D
C775   C5537   1.405   1_554 S
C776   C777    1.389   .     S
C776   C5578   1.401   1_554 S
C777   N779    1.401   .     D
C777   H783    1.150   .     S
C778   C2376   1.401   .     S
C778   N780    1.400   .     D
C778   H784    1.045   .     S
N779   N5580   1.592   1_554 S
N780   N2379   1.592   .     S
N780   Co797   1.875   .     S
H781   C1173   1.167   .     S
H782   C1174   1.115   .     S
C785   C786    1.402   .     D
C785   H793    1.167   .     S
C785   C5527   1.405   1_554 S
C786   C787    1.402   .     S
C786   H794    1.115   .     S
C787   C788    1.510   .     D
C787   C5525   1.405   1_554 S
C788   C789    1.389   .     S
C788   C5590   1.401   1_554 S
C789   N791    1.401   .     D
C789   H795    1.150   .     S
C790   C2388   1.401   .     S
C790   N792    1.400   .     D
C790   H796    1.045   .     S
N791   N5592   1.592   1_554 S
N791   Co800   1.857   .     S
N792   N2391   1.592   .     S
N792   Co798   1.875   .     S
Co799  N1155   1.857   .     S
Co799  N1179   1.857   .     S
C801   C802    1.402   .     D
C801   H1209   1.167   .     S
C801   C863    1.405   .     S
C802   C803    1.402   .     S
C802   H1210   1.115   .     S
C803   C804    1.510   .     D
C803   C861    1.405   .     S
C804   C805    1.389   .     S
C804   C806    1.401   .     S
C805   N807    1.401   .     D
C805   H811    1.150   .     S
C806   N808    1.400   .     D
C806   H812    1.045   .     S
N807   N808    1.592   .     S
N807   Co1297  1.857   .     S
N808   Co899   1.875   .     S
C813   C814    1.402   .     D
C813   H821    1.167   .     S
C813   C851    1.405   .     S
C814   C815    1.402   .     S
C814   H822    1.115   .     S
C815   C816    1.510   .     D
C815   C849    1.405   .     S
C816   C817    1.389   .     S
C816   C818    1.401   .     S
C817   N819    1.401   .     D
C817   H823    1.150   .     S
C818   N820    1.400   .     D
C818   H824    1.045   .     S
N819   N820    1.592   .     S
N819   Co898   1.857   .     S
N820   Co900   1.875   .     S
C825   C826    1.402   .     D
C825   H1233   1.167   .     S
C825   C2487   1.405   .     S
C826   C827    1.402   .     S
C826   H1234   1.115   .     S
C827   C828    1.510   .     D
C827   C2485   1.405   .     S
C828   C829    1.389   .     S
C828   C2430   1.401   .     S
C829   N831    1.401   .     D
C829   H835    1.150   .     S
C830   C5628   1.401   1_554 S
C830   N832    1.400   .     D
C830   H836    1.045   .     S
N831   N2432   1.592   .     S
N831   Co1297  1.857   .     S
N832   N5631   1.592   1_554 S
N832   Co899   1.875   .     S
C837   C838    1.402   .     D
C837   H845    1.167   .     S
C837   C2475   1.405   .     S
C838   C839    1.402   .     S
C838   H846    1.115   .     S
C839   C840    1.510   .     D
C839   C2473   1.405   .     S
C840   C841    1.389   .     S
C840   C2442   1.401   .     S
C841   N843    1.401   .     D
C841   H847    1.150   .     S
C842   C5640   1.401   1_554 S
C842   N844    1.400   .     D
C842   H848    1.045   .     S
N843   N2444   1.592   .     S
N843   Co998   1.857   .     S
N844   N5643   1.592   1_554 S
N844   Co1000  1.875   .     S
C849   C850    1.402   .     D
C850   C851    1.402   .     S
C851   C852    1.510   .     D
C852   C853    1.389   .     S
C852   C854    1.401   .     S
C853   N855    1.401   .     D
C853   H859    1.150   .     S
C854   N856    1.400   .     D
C854   H860    1.045   .     S
N855   N856    1.592   .     S
N856   Co897   1.875   .     S
H857   C1249   1.167   .     S
H858   C1250   1.115   .     S
C861   C862    1.402   .     D
C861   H869    1.167   .     S
C862   C863    1.402   .     S
C862   H870    1.115   .     S
C863   C864    1.510   .     D
C864   C865    1.389   .     S
C864   C866    1.401   .     S
C865   N867    1.401   .     D
C865   H871    1.150   .     S
C866   N868    1.400   .     D
C866   H872    1.045   .     S
N867   N868    1.592   .     S
N867   Co1000  1.857   .     S
N868   Co998   1.875   .     S
C873   C874    1.402   .     D
C873   C5639   1.405   1_554 S
C874   C875    1.402   .     S
C875   C876    1.510   .     D
C875   C5637   1.405   1_554 S
C876   C877    1.389   .     S
C876   C5678   1.401   1_554 S
C877   N879    1.401   .     D
C877   H883    1.150   .     S
C878   C2476   1.401   .     S
C878   N880    1.400   .     D
C878   H884    1.045   .     S
N879   N5680   1.592   1_554 S
N880   N2479   1.592   .     S
N880   Co897   1.875   .     S
H881   C1273   1.167   .     S
H882   C1274   1.115   .     S
C885   C886    1.402   .     D
C885   H893    1.167   .     S
C885   C5627   1.405   1_554 S
C886   C887    1.402   .     S
C886   H894    1.115   .     S
C887   C888    1.510   .     D
C887   C5625   1.405   1_554 S
C888   C889    1.389   .     S
C888   C5690   1.401   1_554 S
C889   N891    1.401   .     D
C889   H895    1.150   .     S
C890   C2488   1.401   .     S
C890   N892    1.400   .     D
C890   H896    1.045   .     S
N891   N5692   1.592   1_554 S
N891   Co900   1.857   .     S
N892   N2491   1.592   .     S
N892   Co898   1.875   .     S
Co898  N1143   1.857   1_455 S
Co898  N1168   1.875   1_455 S
Co899  N1255   1.857   .     S
Co899  N1279   1.857   .     S
Co900  N1167   1.857   1_455 S
Co900  N1144   1.875   1_455 S
C901   C902    1.402   .     D
C901   H1309   1.167   .     S
C901   C963    1.405   .     S
C902   C903    1.402   .     S
C902   H1310   1.115   .     S
C903   C904    1.510   .     D
C903   C961    1.405   .     S
C904   C905    1.389   .     S
C904   C906    1.401   .     S
C905   N907    1.401   .     D
C905   H911    1.150   .     S
C906   N908    1.400   .     D
C906   H912    1.045   .     S
N907   N908    1.592   .     S
N907   Co1397  1.857   .     S
N908   Co999   1.875   .     S
C913   C914    1.402   .     D
C913   H921    1.167   .     S
C913   C951    1.405   .     S
C914   C915    1.402   .     S
C914   H922    1.115   .     S
C915   C916    1.510   .     D
C915   C949    1.405   .     S
C916   C917    1.389   .     S
C916   C918    1.401   .     S
C917   N919    1.401   .     D
C917   H923    1.150   .     S
C918   N920    1.400   .     D
C918   H924    1.045   .     S
N919   N920    1.592   .     S
N919   Co998   1.857   .     S
N920   Co1000  1.875   .     S
C925   C926    1.402   .     D
C925   H1333   1.167   .     S
C925   C2587   1.405   .     S
C926   C927    1.402   .     S
C926   H1334   1.115   .     S
C927   C928    1.510   .     D
C927   C2585   1.405   .     S
C928   C929    1.389   .     S
C928   C2530   1.401   .     S
C929   N931    1.401   .     D
C929   H935    1.150   .     S
C930   C5728   1.401   1_554 S
C930   N932    1.400   .     D
C930   H936    1.045   .     S
N931   N2532   1.592   .     S
N931   Co1397  1.857   .     S
N932   N5731   1.592   1_554 S
N932   Co999   1.875   .     S
C937   C938    1.402   .     D
C937   H945    1.167   .     S
C937   C2575   1.405   .     S
C938   C939    1.402   .     S
C938   H946    1.115   .     S
C939   C940    1.510   .     D
C939   C2573   1.405   .     S
C940   C941    1.389   .     S
C940   C2542   1.401   .     S
C941   N943    1.401   .     D
C941   H947    1.150   .     S
C942   C5740   1.401   1_554 S
C942   N944    1.400   .     D
C942   H948    1.045   .     S
N943   N2544   1.592   .     S
N943   Co1098  1.857   .     S
N944   N5743   1.592   1_554 S
N944   Co1100  1.875   .     S
C949   C950    1.402   .     D
C950   C951    1.402   .     S
C951   C952    1.510   .     D
C952   C953    1.389   .     S
C952   C954    1.401   .     S
C953   N955    1.401   .     D
C953   H959    1.150   .     S
C954   N956    1.400   .     D
C954   H960    1.045   .     S
N955   N956    1.592   .     S
N956   Co997   1.875   .     S
H957   C1349   1.167   .     S
H958   C1350   1.115   .     S
C961   C962    1.402   .     D
C961   H969    1.167   .     S
C962   C963    1.402   .     S
C962   H970    1.115   .     S
C963   C964    1.510   .     D
C964   C965    1.389   .     S
C964   C966    1.401   .     S
C965   N967    1.401   .     D
C965   H971    1.150   .     S
C966   N968    1.400   .     D
C966   H972    1.045   .     S
N967   N968    1.592   .     S
N967   Co1100  1.857   .     S
N968   Co1098  1.875   .     S
C973   C974    1.402   .     D
C973   C5739   1.405   1_554 S
C974   C975    1.402   .     S
C975   C976    1.510   .     D
C975   C5737   1.405   1_554 S
C976   C977    1.389   .     S
C976   C5778   1.401   1_554 S
C977   N979    1.401   .     D
C977   H983    1.150   .     S
C978   C2576   1.401   .     S
C978   N980    1.400   .     D
C978   H984    1.045   .     S
N979   N5780   1.592   1_554 S
N980   N2579   1.592   .     S
N980   Co997   1.875   .     S
H981   C1373   1.167   .     S
H982   C1374   1.115   .     S
C985   C986    1.402   .     D
C985   H993    1.167   .     S
C985   C5727   1.405   1_554 S
C986   C987    1.402   .     S
C986   H994    1.115   .     S
C987   C988    1.510   .     D
C987   C5725   1.405   1_554 S
C988   C989    1.389   .     S
C988   C5790   1.401   1_554 S
C989   N991    1.401   .     D
C989   H995    1.150   .     S
C990   C2588   1.401   .     S
C990   N992    1.400   .     D
C990   H996    1.045   .     S
N991   N5792   1.592   1_554 S
N991   Co1000  1.857   .     S
N992   N2591   1.592   .     S
N992   Co998   1.875   .     S
Co999  N1355   1.857   .     S
Co999  N1379   1.857   .     S
C1001  C1002   1.402   .     D
C1001  H1409   1.167   .     S
C1001  C1063   1.405   .     S
C1002  C1003   1.402   .     S
C1002  H1410   1.115   .     S
C1003  C1004   1.510   .     D
C1003  C1061   1.405   .     S
C1004  C1005   1.389   .     S
C1004  C1006   1.401   .     S
C1005  N1007   1.401   .     D
C1005  H1011   1.150   .     S
C1006  N1008   1.400   .     D
C1006  H1012   1.045   .     S
N1007  N1008   1.592   .     S
N1007  Co1497  1.857   .     S
N1008  Co1099  1.875   .     S
C1013  C1014   1.402   .     D
C1013  H1021   1.167   .     S
C1013  C1051   1.405   .     S
C1014  C1015   1.402   .     S
C1014  H1022   1.115   .     S
C1015  C1016   1.510   .     D
C1015  C1049   1.405   .     S
C1016  C1017   1.389   .     S
C1016  C1018   1.401   .     S
C1017  N1019   1.401   .     D
C1017  H1023   1.150   .     S
C1018  N1020   1.400   .     D
C1018  H1024   1.045   .     S
N1019  N1020   1.592   .     S
N1019  Co1098  1.857   .     S
N1020  Co1100  1.875   .     S
C1025  C1026   1.402   .     D
C1025  H1433   1.167   .     S
C1025  C2687   1.405   .     S
C1026  C1027   1.402   .     S
C1026  H1434   1.115   .     S
C1027  C1028   1.510   .     D
C1027  C2685   1.405   .     S
C1028  C1029   1.389   .     S
C1028  C2630   1.401   .     S
C1029  N1031   1.401   .     D
C1029  H1035   1.150   .     S
C1030  C5828   1.401   1_554 S
C1030  N1032   1.400   .     D
C1030  H1036   1.045   .     S
N1031  N2632   1.592   .     S
N1031  Co1497  1.857   .     S
N1032  N5831   1.592   1_554 S
N1032  Co1099  1.875   .     S
C1037  C1038   1.402   .     D
C1037  H1045   1.167   .     S
C1037  C2675   1.405   .     S
C1038  C1039   1.402   .     S
C1038  H1046   1.115   .     S
C1039  C1040   1.510   .     D
C1039  C2673   1.405   .     S
C1040  C1041   1.389   .     S
C1040  C2642   1.401   .     S
C1041  N1043   1.401   .     D
C1041  H1047   1.150   .     S
C1042  C5840   1.401   1_554 S
C1042  N1044   1.400   .     D
C1042  H1048   1.045   .     S
N1043  N2644   1.592   .     S
N1043  Co1198  1.857   .     S
N1044  N5843   1.592   1_554 S
N1044  Co1200  1.875   .     S
C1049  C1050   1.402   .     D
C1050  C1051   1.402   .     S
C1051  C1052   1.510   .     D
C1052  C1053   1.389   .     S
C1052  C1054   1.401   .     S
C1053  N1055   1.401   .     D
C1053  H1059   1.150   .     S
C1054  N1056   1.400   .     D
C1054  H1060   1.045   .     S
N1055  N1056   1.592   .     S
N1056  Co1097  1.875   .     S
H1057  C1449   1.167   .     S
H1058  C1450   1.115   .     S
C1061  C1062   1.402   .     D
C1061  H1069   1.167   .     S
C1062  C1063   1.402   .     S
C1062  H1070   1.115   .     S
C1063  C1064   1.510   .     D
C1064  C1065   1.389   .     S
C1064  C1066   1.401   .     S
C1065  N1067   1.401   .     D
C1065  H1071   1.150   .     S
C1066  N1068   1.400   .     D
C1066  H1072   1.045   .     S
N1067  N1068   1.592   .     S
N1067  Co1200  1.857   .     S
N1068  Co1198  1.875   .     S
C1073  C1074   1.402   .     D
C1073  C5839   1.405   1_554 S
C1074  C1075   1.402   .     S
C1075  C1076   1.510   .     D
C1075  C5837   1.405   1_554 S
C1076  C1077   1.389   .     S
C1076  C5878   1.401   1_554 S
C1077  N1079   1.401   .     D
C1077  H1083   1.150   .     S
C1078  C2676   1.401   .     S
C1078  N1080   1.400   .     D
C1078  H1084   1.045   .     S
N1079  N5880   1.592   1_554 S
N1080  N2679   1.592   .     S
N1080  Co1097  1.875   .     S
H1081  C1473   1.167   .     S
H1082  C1474   1.115   .     S
C1085  C1086   1.402   .     D
C1085  H1093   1.167   .     S
C1085  C5827   1.405   1_554 S
C1086  C1087   1.402   .     S
C1086  H1094   1.115   .     S
C1087  C1088   1.510   .     D
C1087  C5825   1.405   1_554 S
C1088  C1089   1.389   .     S
C1088  C5890   1.401   1_554 S
C1089  N1091   1.401   .     D
C1089  H1095   1.150   .     S
C1090  C2688   1.401   .     S
C1090  N1092   1.400   .     D
C1090  H1096   1.045   .     S
N1091  N5892   1.592   1_554 S
N1091  Co1100  1.857   .     S
N1092  N2691   1.592   .     S
N1092  Co1098  1.875   .     S
Co1099 N1455   1.857   .     S
Co1099 N1479   1.857   .     S
C1101  C1102   1.402   .     D
C1101  H1509   1.167   .     S
C1101  C1163   1.405   .     S
C1102  C1103   1.402   .     S
C1102  H1510   1.115   .     S
C1103  C1104   1.510   .     D
C1103  C1161   1.405   .     S
C1104  C1105   1.389   .     S
C1104  C1106   1.401   .     S
C1105  N1107   1.401   .     D
C1105  H1111   1.150   .     S
C1106  N1108   1.400   .     D
C1106  H1112   1.045   .     S
N1107  N1108   1.592   .     S
N1107  Co1597  1.857   .     S
N1108  Co1199  1.875   .     S
C1113  C1114   1.402   .     D
C1113  H1121   1.167   .     S
C1113  C1151   1.405   .     S
C1114  C1115   1.402   .     S
C1114  H1122   1.115   .     S
C1115  C1116   1.510   .     D
C1115  C1149   1.405   .     S
C1116  C1117   1.389   .     S
C1116  C1118   1.401   .     S
C1117  N1119   1.401   .     D
C1117  H1123   1.150   .     S
C1118  N1120   1.400   .     D
C1118  H1124   1.045   .     S
N1119  N1120   1.592   .     S
N1119  Co1198  1.857   .     S
N1120  Co1200  1.875   .     S
C1125  C1126   1.402   .     D
C1125  H1533   1.167   .     S
C1125  C2787   1.405   .     S
C1126  C1127   1.402   .     S
C1126  H1534   1.115   .     S
C1127  C1128   1.510   .     D
C1127  C2785   1.405   .     S
C1128  C1129   1.389   .     S
C1128  C2730   1.401   .     S
C1129  N1131   1.401   .     D
C1129  H1135   1.150   .     S
C1130  C5928   1.401   1_554 S
C1130  N1132   1.400   .     D
C1130  H1136   1.045   .     S
N1131  N2732   1.592   .     S
N1131  Co1597  1.857   .     S
N1132  N5931   1.592   1_554 S
N1132  Co1199  1.875   .     S
C1137  C1138   1.402   .     D
C1137  H1145   1.167   .     S
C1137  C2775   1.405   .     S
C1138  C1139   1.402   .     S
C1138  H1146   1.115   .     S
C1139  C1140   1.510   .     D
C1139  C2773   1.405   .     S
C1140  C1141   1.389   .     S
C1140  C2742   1.401   .     S
C1141  N1143   1.401   .     D
C1141  H1147   1.150   .     S
C1142  C5940   1.401   1_554 S
C1142  N1144   1.400   .     D
C1142  H1148   1.045   .     S
N1143  N2744   1.592   .     S
N1143  Co898   1.857   1_655 S
N1144  N5943   1.592   1_554 S
N1144  Co900   1.875   1_655 S
C1149  C1150   1.402   .     D
C1150  C1151   1.402   .     S
C1151  C1152   1.510   .     D
C1152  C1153   1.389   .     S
C1152  C1154   1.401   .     S
C1153  N1155   1.401   .     D
C1153  H1159   1.150   .     S
C1154  N1156   1.400   .     D
C1154  H1160   1.045   .     S
N1155  N1156   1.592   .     S
N1156  Co1197  1.875   .     S
H1157  C1549   1.167   .     S
H1158  C1550   1.115   .     S
C1161  C1162   1.402   .     D
C1161  H1169   1.167   .     S
C1162  C1163   1.402   .     S
C1162  H1170   1.115   .     S
C1163  C1164   1.510   .     D
C1164  C1165   1.389   .     S
C1164  C1166   1.401   .     S
C1165  N1167   1.401   .     D
C1165  H1171   1.150   .     S
C1166  N1168   1.400   .     D
C1166  H1172   1.045   .     S
N1167  N1168   1.592   .     S
N1167  Co900   1.857   1_655 S
N1168  Co898   1.875   1_655 S
C1173  C1174   1.402   .     D
C1173  C5939   1.405   1_554 S
C1174  C1175   1.402   .     S
C1175  C1176   1.510   .     D
C1175  C5937   1.405   1_554 S
C1176  C1177   1.389   .     S
C1176  C5978   1.401   1_554 S
C1177  N1179   1.401   .     D
C1177  H1183   1.150   .     S
C1178  C2776   1.401   .     S
C1178  N1180   1.400   .     D
C1178  H1184   1.045   .     S
N1179  N5980   1.592   1_554 S
N1180  N2779   1.592   .     S
N1180  Co1197  1.875   .     S
H1181  C1573   1.167   .     S
H1182  C1574   1.115   .     S
C1185  C1186   1.402   .     D
C1185  H1193   1.167   .     S
C1185  C5927   1.405   1_554 S
C1186  C1187   1.402   .     S
C1186  H1194   1.115   .     S
C1187  C1188   1.510   .     D
C1187  C5925   1.405   1_554 S
C1188  C1189   1.389   .     S
C1188  C5990   1.401   1_554 S
C1189  N1191   1.401   .     D
C1189  H1195   1.150   .     S
C1190  C2788   1.401   .     S
C1190  N1192   1.400   .     D
C1190  H1196   1.045   .     S
N1191  N5992   1.592   1_554 S
N1191  Co1200  1.857   .     S
N1192  N2791   1.592   .     S
N1192  Co1198  1.875   .     S
Co1199 N1555   1.857   .     S
Co1199 N1579   1.857   .     S
C1201  C1202   1.402   .     D
C1201  H9      1.167   1_565 S
C1201  C1263   1.405   .     S
C1202  C1203   1.402   .     S
C1202  H10     1.115   1_565 S
C1203  C1204   1.510   .     D
C1203  C1261   1.405   .     S
C1204  C1205   1.389   .     S
C1204  C1206   1.401   .     S
C1205  N1207   1.401   .     D
C1205  H1211   1.150   .     S
C1206  N1208   1.400   .     D
C1206  H1212   1.045   .     S
N1207  N1208   1.592   .     S
N1207  Co97    1.857   1_565 S
N1208  Co1299  1.875   .     S
C1213  C1214   1.402   .     D
C1213  H1221   1.167   .     S
C1213  C1251   1.405   .     S
C1214  C1215   1.402   .     S
C1214  H1222   1.115   .     S
C1215  C1216   1.510   .     D
C1215  C1249   1.405   .     S
C1216  C1217   1.389   .     S
C1216  C1218   1.401   .     S
C1217  N1219   1.401   .     D
C1217  H1223   1.150   .     S
C1218  N1220   1.400   .     D
C1218  H1224   1.045   .     S
N1219  N1220   1.592   .     S
N1219  Co1298  1.857   .     S
N1220  Co1300  1.875   .     S
C1225  C1226   1.402   .     D
C1225  H33     1.167   1_565 S
C1225  C2887   1.405   .     S
C1226  C1227   1.402   .     S
C1226  H34     1.115   1_565 S
C1227  C1228   1.510   .     D
C1227  C2885   1.405   .     S
C1228  C1229   1.389   .     S
C1228  C2830   1.401   .     S
C1229  N1231   1.401   .     D
C1229  H1235   1.150   .     S
C1230  C6028   1.401   1_554 S
C1230  N1232   1.400   .     D
C1230  H1236   1.045   .     S
N1231  N2832   1.592   .     S
N1231  Co97    1.857   1_565 S
N1232  N6031   1.592   1_554 S
N1232  Co1299  1.875   .     S
C1237  C1238   1.402   .     D
C1237  H1245   1.167   .     S
C1237  C2875   1.405   .     S
C1238  C1239   1.402   .     S
C1238  H1246   1.115   .     S
C1239  C1240   1.510   .     D
C1239  C2873   1.405   .     S
C1240  C1241   1.389   .     S
C1240  C2842   1.401   .     S
C1241  N1243   1.401   .     D
C1241  H1247   1.150   .     S
C1242  C6040   1.401   1_554 S
C1242  N1244   1.400   .     D
C1242  H1248   1.045   .     S
N1243  N2844   1.592   .     S
N1243  Co1398  1.857   .     S
N1244  N6043   1.592   1_554 S
N1244  Co1400  1.875   .     S
C1249  C1250   1.402   .     D
C1250  C1251   1.402   .     S
C1251  C1252   1.510   .     D
C1252  C1253   1.389   .     S
C1252  C1254   1.401   .     S
C1253  N1255   1.401   .     D
C1253  H1259   1.150   .     S
C1254  N1256   1.400   .     D
C1254  H1260   1.045   .     S
N1255  N1256   1.592   .     S
N1256  Co1297  1.875   .     S
H1257  C49     1.167   1_565 S
H1258  C50     1.115   1_565 S
C1261  C1262   1.402   .     D
C1261  H1269   1.167   .     S
C1262  C1263   1.402   .     S
C1262  H1270   1.115   .     S
C1263  C1264   1.510   .     D
C1264  C1265   1.389   .     S
C1264  C1266   1.401   .     S
C1265  N1267   1.401   .     D
C1265  H1271   1.150   .     S
C1266  N1268   1.400   .     D
C1266  H1272   1.045   .     S
N1267  N1268   1.592   .     S
N1267  Co1400  1.857   .     S
N1268  Co1398  1.875   .     S
C1273  C1274   1.402   .     D
C1273  C6039   1.405   1_554 S
C1274  C1275   1.402   .     S
C1275  C1276   1.510   .     D
C1275  C6037   1.405   1_554 S
C1276  C1277   1.389   .     S
C1276  C6078   1.401   1_554 S
C1277  N1279   1.401   .     D
C1277  H1283   1.150   .     S
C1278  C2876   1.401   .     S
C1278  N1280   1.400   .     D
C1278  H1284   1.045   .     S
N1279  N6080   1.592   1_554 S
N1280  N2879   1.592   .     S
N1280  Co1297  1.875   .     S
H1281  C73     1.167   1_565 S
H1282  C74     1.115   1_565 S
C1285  C1286   1.402   .     D
C1285  H1293   1.167   .     S
C1285  C6027   1.405   1_554 S
C1286  C1287   1.402   .     S
C1286  H1294   1.115   .     S
C1287  C1288   1.510   .     D
C1287  C6025   1.405   1_554 S
C1288  C1289   1.389   .     S
C1288  C6090   1.401   1_554 S
C1289  N1291   1.401   .     D
C1289  H1295   1.150   .     S
C1290  C2888   1.401   .     S
C1290  N1292   1.400   .     D
C1290  H1296   1.045   .     S
N1291  N6092   1.592   1_554 S
N1291  Co1300  1.857   .     S
N1292  N2891   1.592   .     S
N1292  Co1298  1.875   .     S
Co1298 N1543   1.857   1_455 S
Co1298 N1568   1.875   1_455 S
Co1299 N55     1.857   1_565 S
Co1299 N79     1.857   1_565 S
Co1300 N1567   1.857   1_455 S
Co1300 N1544   1.875   1_455 S
C1301  C1302   1.402   .     D
C1301  H109    1.167   1_565 S
C1301  C1363   1.405   .     S
C1302  C1303   1.402   .     S
C1302  H110    1.115   1_565 S
C1303  C1304   1.510   .     D
C1303  C1361   1.405   .     S
C1304  C1305   1.389   .     S
C1304  C1306   1.401   .     S
C1305  N1307   1.401   .     D
C1305  H1311   1.150   .     S
C1306  N1308   1.400   .     D
C1306  H1312   1.045   .     S
N1307  N1308   1.592   .     S
N1307  Co197   1.857   1_565 S
N1308  Co1399  1.875   .     S
C1313  C1314   1.402   .     D
C1313  H1321   1.167   .     S
C1313  C1351   1.405   .     S
C1314  C1315   1.402   .     S
C1314  H1322   1.115   .     S
C1315  C1316   1.510   .     D
C1315  C1349   1.405   .     S
C1316  C1317   1.389   .     S
C1316  C1318   1.401   .     S
C1317  N1319   1.401   .     D
C1317  H1323   1.150   .     S
C1318  N1320   1.400   .     D
C1318  H1324   1.045   .     S
N1319  N1320   1.592   .     S
N1319  Co1398  1.857   .     S
N1320  Co1400  1.875   .     S
C1325  C1326   1.402   .     D
C1325  H133    1.167   1_565 S
C1325  C2987   1.405   .     S
C1326  C1327   1.402   .     S
C1326  H134    1.115   1_565 S
C1327  C1328   1.510   .     D
C1327  C2985   1.405   .     S
C1328  C1329   1.389   .     S
C1328  C2930   1.401   .     S
C1329  N1331   1.401   .     D
C1329  H1335   1.150   .     S
C1330  C6128   1.401   1_554 S
C1330  N1332   1.400   .     D
C1330  H1336   1.045   .     S
N1331  N2932   1.592   .     S
N1331  Co197   1.857   1_565 S
N1332  N6131   1.592   1_554 S
N1332  Co1399  1.875   .     S
C1337  C1338   1.402   .     D
C1337  H1345   1.167   .     S
C1337  C2975   1.405   .     S
C1338  C1339   1.402   .     S
C1338  H1346   1.115   .     S
C1339  C1340   1.510   .     D
C1339  C2973   1.405   .     S
C1340  C1341   1.389   .     S
C1340  C2942   1.401   .     S
C1341  N1343   1.401   .     D
C1341  H1347   1.150   .     S
C1342  C6140   1.401   1_554 S
C1342  N1344   1.400   .     D
C1342  H1348   1.045   .     S
N1343  N2944   1.592   .     S
N1343  Co1498  1.857   .     S
N1344  N6143   1.592   1_554 S
N1344  Co1500  1.875   .     S
C1349  C1350   1.402   .     D
C1350  C1351   1.402   .     S
C1351  C1352   1.510   .     D
C1352  C1353   1.389   .     S
C1352  C1354   1.401   .     S
C1353  N1355   1.401   .     D
C1353  H1359   1.150   .     S
C1354  N1356   1.400   .     D
C1354  H1360   1.045   .     S
N1355  N1356   1.592   .     S
N1356  Co1397  1.875   .     S
H1357  C149    1.167   1_565 S
H1358  C150    1.115   1_565 S
C1361  C1362   1.402   .     D
C1361  H1369   1.167   .     S
C1362  C1363   1.402   .     S
C1362  H1370   1.115   .     S
C1363  C1364   1.510   .     D
C1364  C1365   1.389   .     S
C1364  C1366   1.401   .     S
C1365  N1367   1.401   .     D
C1365  H1371   1.150   .     S
C1366  N1368   1.400   .     D
C1366  H1372   1.045   .     S
N1367  N1368   1.592   .     S
N1367  Co1500  1.857   .     S
N1368  Co1498  1.875   .     S
C1373  C1374   1.402   .     D
C1373  C6139   1.405   1_554 S
C1374  C1375   1.402   .     S
C1375  C1376   1.510   .     D
C1375  C6137   1.405   1_554 S
C1376  C1377   1.389   .     S
C1376  C6178   1.401   1_554 S
C1377  N1379   1.401   .     D
C1377  H1383   1.150   .     S
C1378  C2976   1.401   .     S
C1378  N1380   1.400   .     D
C1378  H1384   1.045   .     S
N1379  N6180   1.592   1_554 S
N1380  N2979   1.592   .     S
N1380  Co1397  1.875   .     S
H1381  C173    1.167   1_565 S
H1382  C174    1.115   1_565 S
C1385  C1386   1.402   .     D
C1385  H1393   1.167   .     S
C1385  C6127   1.405   1_554 S
C1386  C1387   1.402   .     S
C1386  H1394   1.115   .     S
C1387  C1388   1.510   .     D
C1387  C6125   1.405   1_554 S
C1388  C1389   1.389   .     S
C1388  C6190   1.401   1_554 S
C1389  N1391   1.401   .     D
C1389  H1395   1.150   .     S
C1390  C2988   1.401   .     S
C1390  N1392   1.400   .     D
C1390  H1396   1.045   .     S
N1391  N6192   1.592   1_554 S
N1391  Co1400  1.857   .     S
N1392  N2991   1.592   .     S
N1392  Co1398  1.875   .     S
Co1399 N155    1.857   1_565 S
Co1399 N179    1.857   1_565 S
C1401  C1402   1.402   .     D
C1401  H209    1.167   1_565 S
C1401  C1463   1.405   .     S
C1402  C1403   1.402   .     S
C1402  H210    1.115   1_565 S
C1403  C1404   1.510   .     D
C1403  C1461   1.405   .     S
C1404  C1405   1.389   .     S
C1404  C1406   1.401   .     S
C1405  N1407   1.401   .     D
C1405  H1411   1.150   .     S
C1406  N1408   1.400   .     D
C1406  H1412   1.045   .     S
N1407  N1408   1.592   .     S
N1407  Co297   1.857   1_565 S
N1408  Co1499  1.875   .     S
C1413  C1414   1.402   .     D
C1413  H1421   1.167   .     S
C1413  C1451   1.405   .     S
C1414  C1415   1.402   .     S
C1414  H1422   1.115   .     S
C1415  C1416   1.510   .     D
C1415  C1449   1.405   .     S
C1416  C1417   1.389   .     S
C1416  C1418   1.401   .     S
C1417  N1419   1.401   .     D
C1417  H1423   1.150   .     S
C1418  N1420   1.400   .     D
C1418  H1424   1.045   .     S
N1419  N1420   1.592   .     S
N1419  Co1498  1.857   .     S
N1420  Co1500  1.875   .     S
C1425  C1426   1.402   .     D
C1425  H233    1.167   1_565 S
C1425  C3087   1.405   .     S
C1426  C1427   1.402   .     S
C1426  H234    1.115   1_565 S
C1427  C1428   1.510   .     D
C1427  C3085   1.405   .     S
C1428  C1429   1.389   .     S
C1428  C3030   1.401   .     S
C1429  N1431   1.401   .     D
C1429  H1435   1.150   .     S
C1430  C6228   1.401   1_554 S
C1430  N1432   1.400   .     D
C1430  H1436   1.045   .     S
N1431  N3032   1.592   .     S
N1431  Co297   1.857   1_565 S
N1432  N6231   1.592   1_554 S
N1432  Co1499  1.875   .     S
C1437  C1438   1.402   .     D
C1437  H1445   1.167   .     S
C1437  C3075   1.405   .     S
C1438  C1439   1.402   .     S
C1438  H1446   1.115   .     S
C1439  C1440   1.510   .     D
C1439  C3073   1.405   .     S
C1440  C1441   1.389   .     S
C1440  C3042   1.401   .     S
C1441  N1443   1.401   .     D
C1441  H1447   1.150   .     S
C1442  C6240   1.401   1_554 S
C1442  N1444   1.400   .     D
C1442  H1448   1.045   .     S
N1443  N3044   1.592   .     S
N1443  Co1598  1.857   .     S
N1444  N6243   1.592   1_554 S
N1444  Co1600  1.875   .     S
C1449  C1450   1.402   .     D
C1450  C1451   1.402   .     S
C1451  C1452   1.510   .     D
C1452  C1453   1.389   .     S
C1452  C1454   1.401   .     S
C1453  N1455   1.401   .     D
C1453  H1459   1.150   .     S
C1454  N1456   1.400   .     D
C1454  H1460   1.045   .     S
N1455  N1456   1.592   .     S
N1456  Co1497  1.875   .     S
H1457  C249    1.167   1_565 S
H1458  C250    1.115   1_565 S
C1461  C1462   1.402   .     D
C1461  H1469   1.167   .     S
C1462  C1463   1.402   .     S
C1462  H1470   1.115   .     S
C1463  C1464   1.510   .     D
C1464  C1465   1.389   .     S
C1464  C1466   1.401   .     S
C1465  N1467   1.401   .     D
C1465  H1471   1.150   .     S
C1466  N1468   1.400   .     D
C1466  H1472   1.045   .     S
N1467  N1468   1.592   .     S
N1467  Co1600  1.857   .     S
N1468  Co1598  1.875   .     S
C1473  C1474   1.402   .     D
C1473  C6239   1.405   1_554 S
C1474  C1475   1.402   .     S
C1475  C1476   1.510   .     D
C1475  C6237   1.405   1_554 S
C1476  C1477   1.389   .     S
C1476  C6278   1.401   1_554 S
C1477  N1479   1.401   .     D
C1477  H1483   1.150   .     S
C1478  C3076   1.401   .     S
C1478  N1480   1.400   .     D
C1478  H1484   1.045   .     S
N1479  N6280   1.592   1_554 S
N1480  N3079   1.592   .     S
N1480  Co1497  1.875   .     S
H1481  C273    1.167   1_565 S
H1482  C274    1.115   1_565 S
C1485  C1486   1.402   .     D
C1485  H1493   1.167   .     S
C1485  C6227   1.405   1_554 S
C1486  C1487   1.402   .     S
C1486  H1494   1.115   .     S
C1487  C1488   1.510   .     D
C1487  C6225   1.405   1_554 S
C1488  C1489   1.389   .     S
C1488  C6290   1.401   1_554 S
C1489  N1491   1.401   .     D
C1489  H1495   1.150   .     S
C1490  C3088   1.401   .     S
C1490  N1492   1.400   .     D
C1490  H1496   1.045   .     S
N1491  N6292   1.592   1_554 S
N1491  Co1500  1.857   .     S
N1492  N3091   1.592   .     S
N1492  Co1498  1.875   .     S
Co1499 N255    1.857   1_565 S
Co1499 N279    1.857   1_565 S
C1501  C1502   1.402   .     D
C1501  H309    1.167   1_565 S
C1501  C1563   1.405   .     S
C1502  C1503   1.402   .     S
C1502  H310    1.115   1_565 S
C1503  C1504   1.510   .     D
C1503  C1561   1.405   .     S
C1504  C1505   1.389   .     S
C1504  C1506   1.401   .     S
C1505  N1507   1.401   .     D
C1505  H1511   1.150   .     S
C1506  N1508   1.400   .     D
C1506  H1512   1.045   .     S
N1507  N1508   1.592   .     S
N1507  Co397   1.857   1_565 S
N1508  Co1599  1.875   .     S
C1513  C1514   1.402   .     D
C1513  H1521   1.167   .     S
C1513  C1551   1.405   .     S
C1514  C1515   1.402   .     S
C1514  H1522   1.115   .     S
C1515  C1516   1.510   .     D
C1515  C1549   1.405   .     S
C1516  C1517   1.389   .     S
C1516  C1518   1.401   .     S
C1517  N1519   1.401   .     D
C1517  H1523   1.150   .     S
C1518  N1520   1.400   .     D
C1518  H1524   1.045   .     S
N1519  N1520   1.592   .     S
N1519  Co1598  1.857   .     S
N1520  Co1600  1.875   .     S
C1525  C1526   1.402   .     D
C1525  H333    1.167   1_565 S
C1525  C3187   1.405   .     S
C1526  C1527   1.402   .     S
C1526  H334    1.115   1_565 S
C1527  C1528   1.510   .     D
C1527  C3185   1.405   .     S
C1528  C1529   1.389   .     S
C1528  C3130   1.401   .     S
C1529  N1531   1.401   .     D
C1529  H1535   1.150   .     S
C1530  C6328   1.401   1_554 S
C1530  N1532   1.400   .     D
C1530  H1536   1.045   .     S
N1531  N3132   1.592   .     S
N1531  Co397   1.857   1_565 S
N1532  N6331   1.592   1_554 S
N1532  Co1599  1.875   .     S
C1537  C1538   1.402   .     D
C1537  H1545   1.167   .     S
C1537  C3175   1.405   .     S
C1538  C1539   1.402   .     S
C1538  H1546   1.115   .     S
C1539  C1540   1.510   .     D
C1539  C3173   1.405   .     S
C1540  C1541   1.389   .     S
C1540  C3142   1.401   .     S
C1541  N1543   1.401   .     D
C1541  H1547   1.150   .     S
C1542  C6340   1.401   1_554 S
C1542  N1544   1.400   .     D
C1542  H1548   1.045   .     S
N1543  N3144   1.592   .     S
N1543  Co1298  1.857   1_655 S
N1544  N6343   1.592   1_554 S
N1544  Co1300  1.875   1_655 S
C1549  C1550   1.402   .     D
C1550  C1551   1.402   .     S
C1551  C1552   1.510   .     D
C1552  C1553   1.389   .     S
C1552  C1554   1.401   .     S
C1553  N1555   1.401   .     D
C1553  H1559   1.150   .     S
C1554  N1556   1.400   .     D
C1554  H1560   1.045   .     S
N1555  N1556   1.592   .     S
N1556  Co1597  1.875   .     S
H1557  C349    1.167   1_565 S
H1558  C350    1.115   1_565 S
C1561  C1562   1.402   .     D
C1561  H1569   1.167   .     S
C1562  C1563   1.402   .     S
C1562  H1570   1.115   .     S
C1563  C1564   1.510   .     D
C1564  C1565   1.389   .     S
C1564  C1566   1.401   .     S
C1565  N1567   1.401   .     D
C1565  H1571   1.150   .     S
C1566  N1568   1.400   .     D
C1566  H1572   1.045   .     S
N1567  N1568   1.592   .     S
N1567  Co1300  1.857   1_655 S
N1568  Co1298  1.875   1_655 S
C1573  C1574   1.402   .     D
C1573  C6339   1.405   1_554 S
C1574  C1575   1.402   .     S
C1575  C1576   1.510   .     D
C1575  C6337   1.405   1_554 S
C1576  C1577   1.389   .     S
C1576  C6378   1.401   1_554 S
C1577  N1579   1.401   .     D
C1577  H1583   1.150   .     S
C1578  C3176   1.401   .     S
C1578  N1580   1.400   .     D
C1578  H1584   1.045   .     S
N1579  N6380   1.592   1_554 S
N1580  N3179   1.592   .     S
N1580  Co1597  1.875   .     S
H1581  C373    1.167   1_565 S
H1582  C374    1.115   1_565 S
C1585  C1586   1.402   .     D
C1585  H1593   1.167   .     S
C1585  C6327   1.405   1_554 S
C1586  C1587   1.402   .     S
C1586  H1594   1.115   .     S
C1587  C1588   1.510   .     D
C1587  C6325   1.405   1_554 S
C1588  C1589   1.389   .     S
C1588  C6390   1.401   1_554 S
C1589  N1591   1.401   .     D
C1589  H1595   1.150   .     S
C1590  C3188   1.401   .     S
C1590  N1592   1.400   .     D
C1590  H1596   1.045   .     S
N1591  N6392   1.592   1_554 S
N1591  Co1600  1.857   .     S
N1592  N3191   1.592   .     S
N1592  Co1598  1.875   .     S
Co1599 N355    1.857   1_565 S
Co1599 N379    1.857   1_565 S
C1601  C1602   1.402   .     D
C1601  H2009   1.167   .     S
C1601  C1663   1.405   .     S
C1602  C1603   1.402   .     S
C1602  H2010   1.115   .     S
C1603  C1604   1.510   .     D
C1603  C1661   1.405   .     S
C1604  C1605   1.389   .     S
C1604  C1606   1.401   .     S
C1605  N1607   1.401   .     D
C1605  H1611   1.150   .     S
C1606  N1608   1.400   .     D
C1606  H1612   1.045   .     S
N1607  N1608   1.592   .     S
N1607  Co2097  1.857   .     S
N1608  Co1699  1.875   .     S
H1609  C2801   1.167   1_545 S
H1610  C2802   1.115   1_545 S
C1613  C1614   1.402   .     D
C1613  H1621   1.167   .     S
C1613  C1651   1.405   .     S
C1614  C1615   1.402   .     S
C1614  H1622   1.115   .     S
C1615  C1616   1.510   .     D
C1615  C1649   1.405   .     S
C1616  C1617   1.389   .     S
C1616  C1618   1.401   .     S
C1617  N1619   1.401   .     D
C1617  H1623   1.150   .     S
C1618  N1620   1.400   .     D
C1618  H1624   1.045   .     S
N1619  N1620   1.592   .     S
N1619  Co1698  1.857   .     S
N1620  Co1700  1.875   .     S
C1625  C1626   1.402   .     D
C1625  H2033   1.167   .     S
C1625  C3287   1.405   .     S
C1626  C1627   1.402   .     S
C1626  H2034   1.115   .     S
C1627  C1628   1.510   .     D
C1627  C3285   1.405   .     S
C1628  C1629   1.389   .     S
C1628  C3230   1.401   .     S
C1629  N1631   1.401   .     D
C1629  H1635   1.150   .     S
C1630  N1632   1.400   .     D
C1630  H1636   1.045   .     S
N1631  N3232   1.592   .     S
N1631  Co2097  1.857   .     S
N1632  Co1699  1.875   .     S
H1633  C2825   1.167   1_545 S
H1634  C2826   1.115   1_545 S
C1637  C1638   1.402   .     D
C1637  H1645   1.167   .     S
C1637  C3275   1.405   .     S
C1638  C1639   1.402   .     S
C1638  H1646   1.115   .     S
C1639  C1640   1.510   .     D
C1639  C3273   1.405   .     S
C1640  C1641   1.389   .     S
C1640  C3242   1.401   .     S
C1641  N1643   1.401   .     D
C1641  H1647   1.150   .     S
C1642  N1644   1.400   .     D
C1642  H1648   1.045   .     S
N1643  N3244   1.592   .     S
N1643  Co1798  1.857   .     S
N1644  Co1800  1.875   .     S
C1649  C1650   1.402   .     D
C1649  H2857   1.167   1_545 S
C1650  C1651   1.402   .     S
C1650  H2858   1.115   1_545 S
C1651  C1652   1.510   .     D
C1652  C1653   1.389   .     S
C1652  C1654   1.401   .     S
C1653  N1655   1.401   .     D
C1653  H1659   1.150   .     S
C1654  N1656   1.400   .     D
C1654  H1660   1.045   .     S
N1655  N1656   1.592   .     S
N1655  Co2899  1.857   1_545 S
N1656  Co1697  1.875   .     S
H1657  C2049   1.167   .     S
H1658  C2050   1.115   .     S
C1661  C1662   1.402   .     D
C1661  H1669   1.167   .     S
C1662  C1663   1.402   .     S
C1662  H1670   1.115   .     S
C1663  C1664   1.510   .     D
C1664  C1665   1.389   .     S
C1664  C1666   1.401   .     S
C1665  N1667   1.401   .     D
C1665  H1671   1.150   .     S
C1666  N1668   1.400   .     D
C1666  H1672   1.045   .     S
N1667  N1668   1.592   .     S
N1667  Co1800  1.857   .     S
N1668  Co1798  1.875   .     S
C1673  C1674   1.402   .     D
C1673  H2881   1.167   1_545 S
C1674  C1675   1.402   .     S
C1674  H2882   1.115   1_545 S
C1675  C1676   1.510   .     D
C1676  C1677   1.389   .     S
C1677  N1679   1.401   .     D
C1677  H1683   1.150   .     S
C1678  C3276   1.401   .     S
C1678  N1680   1.400   .     D
C1678  H1684   1.045   .     S
N1679  Co2899  1.857   1_545 S
N1680  N3279   1.592   .     S
N1680  Co1697  1.875   .     S
H1681  C2073   1.167   .     S
H1682  C2074   1.115   .     S
C1685  C1686   1.402   .     D
C1685  H1693   1.167   .     S
C1686  C1687   1.402   .     S
C1686  H1694   1.115   .     S
C1687  C1688   1.510   .     D
C1688  C1689   1.389   .     S
C1689  N1691   1.401   .     D
C1689  H1695   1.150   .     S
C1690  C3288   1.401   .     S
C1690  N1692   1.400   .     D
C1690  H1696   1.045   .     S
N1691  Co1700  1.857   .     S
N1692  N3291   1.592   .     S
N1692  Co1698  1.875   .     S
Co1697 N2807   1.857   1_545 S
Co1697 N2831   1.857   1_545 S
Co1698 N1943   1.857   1_455 S
Co1698 N1968   1.875   1_455 S
Co1699 N2055   1.857   .     S
Co1699 N2079   1.857   .     S
Co1700 N1967   1.857   1_455 S
Co1700 N1944   1.875   1_455 S
C1701  C1702   1.402   .     D
C1701  H2109   1.167   .     S
C1701  C1763   1.405   .     S
C1702  C1703   1.402   .     S
C1702  H2110   1.115   .     S
C1703  C1704   1.510   .     D
C1703  C1761   1.405   .     S
C1704  C1705   1.389   .     S
C1704  C1706   1.401   .     S
C1705  N1707   1.401   .     D
C1705  H1711   1.150   .     S
C1706  N1708   1.400   .     D
C1706  H1712   1.045   .     S
N1707  N1708   1.592   .     S
N1707  Co2197  1.857   .     S
N1708  Co1799  1.875   .     S
H1709  C2901   1.167   1_545 S
H1710  C2902   1.115   1_545 S
C1713  C1714   1.402   .     D
C1713  H1721   1.167   .     S
C1713  C1751   1.405   .     S
C1714  C1715   1.402   .     S
C1714  H1722   1.115   .     S
C1715  C1716   1.510   .     D
C1715  C1749   1.405   .     S
C1716  C1717   1.389   .     S
C1716  C1718   1.401   .     S
C1717  N1719   1.401   .     D
C1717  H1723   1.150   .     S
C1718  N1720   1.400   .     D
C1718  H1724   1.045   .     S
N1719  N1720   1.592   .     S
N1719  Co1798  1.857   .     S
N1720  Co1800  1.875   .     S
C1725  C1726   1.402   .     D
C1725  H2133   1.167   .     S
C1725  C3387   1.405   .     S
C1726  C1727   1.402   .     S
C1726  H2134   1.115   .     S
C1727  C1728   1.510   .     D
C1727  C3385   1.405   .     S
C1728  C1729   1.389   .     S
C1728  C3330   1.401   .     S
C1729  N1731   1.401   .     D
C1729  H1735   1.150   .     S
C1730  N1732   1.400   .     D
C1730  H1736   1.045   .     S
N1731  N3332   1.592   .     S
N1731  Co2197  1.857   .     S
N1732  Co1799  1.875   .     S
H1733  C2925   1.167   1_545 S
H1734  C2926   1.115   1_545 S
C1737  C1738   1.402   .     D
C1737  H1745   1.167   .     S
C1737  C3375   1.405   .     S
C1738  C1739   1.402   .     S
C1738  H1746   1.115   .     S
C1739  C1740   1.510   .     D
C1739  C3373   1.405   .     S
C1740  C1741   1.389   .     S
C1740  C3342   1.401   .     S
C1741  N1743   1.401   .     D
C1741  H1747   1.150   .     S
C1742  N1744   1.400   .     D
C1742  H1748   1.045   .     S
N1743  N3344   1.592   .     S
N1743  Co1898  1.857   .     S
N1744  Co1900  1.875   .     S
C1749  C1750   1.402   .     D
C1749  H2957   1.167   1_545 S
C1750  C1751   1.402   .     S
C1750  H2958   1.115   1_545 S
C1751  C1752   1.510   .     D
C1752  C1753   1.389   .     S
C1752  C1754   1.401   .     S
C1753  N1755   1.401   .     D
C1753  H1759   1.150   .     S
C1754  N1756   1.400   .     D
C1754  H1760   1.045   .     S
N1755  N1756   1.592   .     S
N1755  Co2999  1.857   1_545 S
N1756  Co1797  1.875   .     S
H1757  C2149   1.167   .     S
H1758  C2150   1.115   .     S
C1761  C1762   1.402   .     D
C1761  H1769   1.167   .     S
C1762  C1763   1.402   .     S
C1762  H1770   1.115   .     S
C1763  C1764   1.510   .     D
C1764  C1765   1.389   .     S
C1764  C1766   1.401   .     S
C1765  N1767   1.401   .     D
C1765  H1771   1.150   .     S
C1766  N1768   1.400   .     D
C1766  H1772   1.045   .     S
N1767  N1768   1.592   .     S
N1767  Co1900  1.857   .     S
N1768  Co1898  1.875   .     S
C1773  C1774   1.402   .     D
C1773  H2981   1.167   1_545 S
C1774  C1775   1.402   .     S
C1774  H2982   1.115   1_545 S
C1775  C1776   1.510   .     D
C1776  C1777   1.389   .     S
C1777  N1779   1.401   .     D
C1777  H1783   1.150   .     S
C1778  C3376   1.401   .     S
C1778  N1780   1.400   .     D
C1778  H1784   1.045   .     S
N1779  Co2999  1.857   1_545 S
N1780  N3379   1.592   .     S
N1780  Co1797  1.875   .     S
H1781  C2173   1.167   .     S
H1782  C2174   1.115   .     S
C1785  C1786   1.402   .     D
C1785  H1793   1.167   .     S
C1786  C1787   1.402   .     S
C1786  H1794   1.115   .     S
C1787  C1788   1.510   .     D
C1788  C1789   1.389   .     S
C1789  N1791   1.401   .     D
C1789  H1795   1.150   .     S
C1790  C3388   1.401   .     S
C1790  N1792   1.400   .     D
C1790  H1796   1.045   .     S
N1791  Co1800  1.857   .     S
N1792  N3391   1.592   .     S
N1792  Co1798  1.875   .     S
Co1797 N2907   1.857   1_545 S
Co1797 N2931   1.857   1_545 S
Co1799 N2155   1.857   .     S
Co1799 N2179   1.857   .     S
C1801  C1802   1.402   .     D
C1801  H2209   1.167   .     S
C1801  C1863   1.405   .     S
C1802  C1803   1.402   .     S
C1802  H2210   1.115   .     S
C1803  C1804   1.510   .     D
C1803  C1861   1.405   .     S
C1804  C1805   1.389   .     S
C1804  C1806   1.401   .     S
C1805  N1807   1.401   .     D
C1805  H1811   1.150   .     S
C1806  N1808   1.400   .     D
C1806  H1812   1.045   .     S
N1807  N1808   1.592   .     S
N1807  Co2297  1.857   .     S
N1808  Co1899  1.875   .     S
H1809  C3001   1.167   1_545 S
H1810  C3002   1.115   1_545 S
C1813  C1814   1.402   .     D
C1813  H1821   1.167   .     S
C1813  C1851   1.405   .     S
C1814  C1815   1.402   .     S
C1814  H1822   1.115   .     S
C1815  C1816   1.510   .     D
C1815  C1849   1.405   .     S
C1816  C1817   1.389   .     S
C1816  C1818   1.401   .     S
C1817  N1819   1.401   .     D
C1817  H1823   1.150   .     S
C1818  N1820   1.400   .     D
C1818  H1824   1.045   .     S
N1819  N1820   1.592   .     S
N1819  Co1898  1.857   .     S
N1820  Co1900  1.875   .     S
C1825  C1826   1.402   .     D
C1825  H2233   1.167   .     S
C1825  C3487   1.405   .     S
C1826  C1827   1.402   .     S
C1826  H2234   1.115   .     S
C1827  C1828   1.510   .     D
C1827  C3485   1.405   .     S
C1828  C1829   1.389   .     S
C1828  C3430   1.401   .     S
C1829  N1831   1.401   .     D
C1829  H1835   1.150   .     S
C1830  N1832   1.400   .     D
C1830  H1836   1.045   .     S
N1831  N3432   1.592   .     S
N1831  Co2297  1.857   .     S
N1832  Co1899  1.875   .     S
H1833  C3025   1.167   1_545 S
H1834  C3026   1.115   1_545 S
C1837  C1838   1.402   .     D
C1837  H1845   1.167   .     S
C1837  C3475   1.405   .     S
C1838  C1839   1.402   .     S
C1838  H1846   1.115   .     S
C1839  C1840   1.510   .     D
C1839  C3473   1.405   .     S
C1840  C1841   1.389   .     S
C1840  C3442   1.401   .     S
C1841  N1843   1.401   .     D
C1841  H1847   1.150   .     S
C1842  N1844   1.400   .     D
C1842  H1848   1.045   .     S
N1843  N3444   1.592   .     S
N1843  Co1998  1.857   .     S
N1844  Co2000  1.875   .     S
C1849  C1850   1.402   .     D
C1849  H3057   1.167   1_545 S
C1850  C1851   1.402   .     S
C1850  H3058   1.115   1_545 S
C1851  C1852   1.510   .     D
C1852  C1853   1.389   .     S
C1852  C1854   1.401   .     S
C1853  N1855   1.401   .     D
C1853  H1859   1.150   .     S
C1854  N1856   1.400   .     D
C1854  H1860   1.045   .     S
N1855  N1856   1.592   .     S
N1855  Co3099  1.857   1_545 S
N1856  Co1897  1.875   .     S
H1857  C2249   1.167   .     S
H1858  C2250   1.115   .     S
C1861  C1862   1.402   .     D
C1861  H1869   1.167   .     S
C1862  C1863   1.402   .     S
C1862  H1870   1.115   .     S
C1863  C1864   1.510   .     D
C1864  C1865   1.389   .     S
C1864  C1866   1.401   .     S
C1865  N1867   1.401   .     D
C1865  H1871   1.150   .     S
C1866  N1868   1.400   .     D
C1866  H1872   1.045   .     S
N1867  N1868   1.592   .     S
N1867  Co2000  1.857   .     S
N1868  Co1998  1.875   .     S
C1873  C1874   1.402   .     D
C1873  H3081   1.167   1_545 S
C1874  C1875   1.402   .     S
C1874  H3082   1.115   1_545 S
C1875  C1876   1.510   .     D
C1876  C1877   1.389   .     S
C1877  N1879   1.401   .     D
C1877  H1883   1.150   .     S
C1878  C3476   1.401   .     S
C1878  N1880   1.400   .     D
C1878  H1884   1.045   .     S
N1879  Co3099  1.857   1_545 S
N1880  N3479   1.592   .     S
N1880  Co1897  1.875   .     S
H1881  C2273   1.167   .     S
H1882  C2274   1.115   .     S
C1885  C1886   1.402   .     D
C1885  H1893   1.167   .     S
C1886  C1887   1.402   .     S
C1886  H1894   1.115   .     S
C1887  C1888   1.510   .     D
C1888  C1889   1.389   .     S
C1889  N1891   1.401   .     D
C1889  H1895   1.150   .     S
C1890  C3488   1.401   .     S
C1890  N1892   1.400   .     D
C1890  H1896   1.045   .     S
N1891  Co1900  1.857   .     S
N1892  N3491   1.592   .     S
N1892  Co1898  1.875   .     S
Co1897 N3007   1.857   1_545 S
Co1897 N3031   1.857   1_545 S
Co1899 N2255   1.857   .     S
Co1899 N2279   1.857   .     S
C1901  C1902   1.402   .     D
C1901  H2309   1.167   .     S
C1901  C1963   1.405   .     S
C1902  C1903   1.402   .     S
C1902  H2310   1.115   .     S
C1903  C1904   1.510   .     D
C1903  C1961   1.405   .     S
C1904  C1905   1.389   .     S
C1904  C1906   1.401   .     S
C1905  N1907   1.401   .     D
C1905  H1911   1.150   .     S
C1906  N1908   1.400   .     D
C1906  H1912   1.045   .     S
N1907  N1908   1.592   .     S
N1907  Co2397  1.857   .     S
N1908  Co1999  1.875   .     S
H1909  C3101   1.167   1_545 S
H1910  C3102   1.115   1_545 S
C1913  C1914   1.402   .     D
C1913  H1921   1.167   .     S
C1913  C1951   1.405   .     S
C1914  C1915   1.402   .     S
C1914  H1922   1.115   .     S
C1915  C1916   1.510   .     D
C1915  C1949   1.405   .     S
C1916  C1917   1.389   .     S
C1916  C1918   1.401   .     S
C1917  N1919   1.401   .     D
C1917  H1923   1.150   .     S
C1918  N1920   1.400   .     D
C1918  H1924   1.045   .     S
N1919  N1920   1.592   .     S
N1919  Co1998  1.857   .     S
N1920  Co2000  1.875   .     S
C1925  C1926   1.402   .     D
C1925  H2333   1.167   .     S
C1925  C3587   1.405   .     S
C1926  C1927   1.402   .     S
C1926  H2334   1.115   .     S
C1927  C1928   1.510   .     D
C1927  C3585   1.405   .     S
C1928  C1929   1.389   .     S
C1928  C3530   1.401   .     S
C1929  N1931   1.401   .     D
C1929  H1935   1.150   .     S
C1930  N1932   1.400   .     D
C1930  H1936   1.045   .     S
N1931  N3532   1.592   .     S
N1931  Co2397  1.857   .     S
N1932  Co1999  1.875   .     S
H1933  C3125   1.167   1_545 S
H1934  C3126   1.115   1_545 S
C1937  C1938   1.402   .     D
C1937  H1945   1.167   .     S
C1937  C3575   1.405   .     S
C1938  C1939   1.402   .     S
C1938  H1946   1.115   .     S
C1939  C1940   1.510   .     D
C1939  C3573   1.405   .     S
C1940  C1941   1.389   .     S
C1940  C3542   1.401   .     S
C1941  N1943   1.401   .     D
C1941  H1947   1.150   .     S
C1942  N1944   1.400   .     D
C1942  H1948   1.045   .     S
N1943  N3544   1.592   .     S
N1943  Co1698  1.857   1_655 S
N1944  Co1700  1.875   1_655 S
C1949  C1950   1.402   .     D
C1949  H3157   1.167   1_545 S
C1950  C1951   1.402   .     S
C1950  H3158   1.115   1_545 S
C1951  C1952   1.510   .     D
C1952  C1953   1.389   .     S
C1952  C1954   1.401   .     S
C1953  N1955   1.401   .     D
C1953  H1959   1.150   .     S
C1954  N1956   1.400   .     D
C1954  H1960   1.045   .     S
N1955  N1956   1.592   .     S
N1955  Co3199  1.857   1_545 S
N1956  Co1997  1.875   .     S
H1957  C2349   1.167   .     S
H1958  C2350   1.115   .     S
C1961  C1962   1.402   .     D
C1961  H1969   1.167   .     S
C1962  C1963   1.402   .     S
C1962  H1970   1.115   .     S
C1963  C1964   1.510   .     D
C1964  C1965   1.389   .     S
C1964  C1966   1.401   .     S
C1965  N1967   1.401   .     D
C1965  H1971   1.150   .     S
C1966  N1968   1.400   .     D
C1966  H1972   1.045   .     S
N1967  N1968   1.592   .     S
N1967  Co1700  1.857   1_655 S
N1968  Co1698  1.875   1_655 S
C1973  C1974   1.402   .     D
C1973  H3181   1.167   1_545 S
C1974  C1975   1.402   .     S
C1974  H3182   1.115   1_545 S
C1975  C1976   1.510   .     D
C1976  C1977   1.389   .     S
C1977  N1979   1.401   .     D
C1977  H1983   1.150   .     S
C1978  C3576   1.401   .     S
C1978  N1980   1.400   .     D
C1978  H1984   1.045   .     S
N1979  Co3199  1.857   1_545 S
N1980  N3579   1.592   .     S
N1980  Co1997  1.875   .     S
H1981  C2373   1.167   .     S
H1982  C2374   1.115   .     S
C1985  C1986   1.402   .     D
C1985  H1993   1.167   .     S
C1986  C1987   1.402   .     S
C1986  H1994   1.115   .     S
C1987  C1988   1.510   .     D
C1988  C1989   1.389   .     S
C1989  N1991   1.401   .     D
C1989  H1995   1.150   .     S
C1990  C3588   1.401   .     S
C1990  N1992   1.400   .     D
C1990  H1996   1.045   .     S
N1991  Co2000  1.857   .     S
N1992  N3591   1.592   .     S
N1992  Co1998  1.875   .     S
Co1997 N3107   1.857   1_545 S
Co1997 N3131   1.857   1_545 S
Co1999 N2355   1.857   .     S
Co1999 N2379   1.857   .     S
C2001  C2002   1.402   .     D
C2001  H2409   1.167   .     S
C2001  C2063   1.405   .     S
C2002  C2003   1.402   .     S
C2002  H2410   1.115   .     S
C2003  C2004   1.510   .     D
C2003  C2061   1.405   .     S
C2004  C2005   1.389   .     S
C2004  C2006   1.401   .     S
C2005  N2007   1.401   .     D
C2005  H2011   1.150   .     S
C2006  N2008   1.400   .     D
C2006  H2012   1.045   .     S
N2007  N2008   1.592   .     S
N2007  Co2497  1.857   .     S
N2008  Co2099  1.875   .     S
C2013  C2014   1.402   .     D
C2013  H2021   1.167   .     S
C2013  C2051   1.405   .     S
C2014  C2015   1.402   .     S
C2014  H2022   1.115   .     S
C2015  C2016   1.510   .     D
C2015  C2049   1.405   .     S
C2016  C2017   1.389   .     S
C2016  C2018   1.401   .     S
C2017  N2019   1.401   .     D
C2017  H2023   1.150   .     S
C2018  N2020   1.400   .     D
C2018  H2024   1.045   .     S
N2019  N2020   1.592   .     S
N2019  Co2098  1.857   .     S
N2020  Co2100  1.875   .     S
C2025  C2026   1.402   .     D
C2025  H2433   1.167   .     S
C2025  C3687   1.405   .     S
C2026  C2027   1.402   .     S
C2026  H2434   1.115   .     S
C2027  C2028   1.510   .     D
C2027  C3685   1.405   .     S
C2028  C2029   1.389   .     S
C2028  C3630   1.401   .     S
C2029  N2031   1.401   .     D
C2029  H2035   1.150   .     S
C2030  N2032   1.400   .     D
C2030  H2036   1.045   .     S
N2031  N3632   1.592   .     S
N2031  Co2497  1.857   .     S
N2032  Co2099  1.875   .     S
C2037  C2038   1.402   .     D
C2037  H2045   1.167   .     S
C2037  C3675   1.405   .     S
C2038  C2039   1.402   .     S
C2038  H2046   1.115   .     S
C2039  C2040   1.510   .     D
C2039  C3673   1.405   .     S
C2040  C2041   1.389   .     S
C2040  C3642   1.401   .     S
C2041  N2043   1.401   .     D
C2041  H2047   1.150   .     S
C2042  N2044   1.400   .     D
C2042  H2048   1.045   .     S
N2043  N3644   1.592   .     S
N2043  Co2198  1.857   .     S
N2044  Co2200  1.875   .     S
C2049  C2050   1.402   .     D
C2050  C2051   1.402   .     S
C2051  C2052   1.510   .     D
C2052  C2053   1.389   .     S
C2052  C2054   1.401   .     S
C2053  N2055   1.401   .     D
C2053  H2059   1.150   .     S
C2054  N2056   1.400   .     D
C2054  H2060   1.045   .     S
N2055  N2056   1.592   .     S
N2056  Co2097  1.875   .     S
H2057  C2449   1.167   .     S
H2058  C2450   1.115   .     S
C2061  C2062   1.402   .     D
C2061  H2069   1.167   .     S
C2062  C2063   1.402   .     S
C2062  H2070   1.115   .     S
C2063  C2064   1.510   .     D
C2064  C2065   1.389   .     S
C2064  C2066   1.401   .     S
C2065  N2067   1.401   .     D
C2065  H2071   1.150   .     S
C2066  N2068   1.400   .     D
C2066  H2072   1.045   .     S
N2067  N2068   1.592   .     S
N2067  Co2200  1.857   .     S
N2068  Co2198  1.875   .     S
C2073  C2074   1.402   .     D
C2074  C2075   1.402   .     S
C2075  C2076   1.510   .     D
C2076  C2077   1.389   .     S
C2077  N2079   1.401   .     D
C2077  H2083   1.150   .     S
C2078  C3676   1.401   .     S
C2078  N2080   1.400   .     D
C2078  H2084   1.045   .     S
N2080  N3679   1.592   .     S
N2080  Co2097  1.875   .     S
H2081  C2473   1.167   .     S
H2082  C2474   1.115   .     S
C2085  C2086   1.402   .     D
C2085  H2093   1.167   .     S
C2086  C2087   1.402   .     S
C2086  H2094   1.115   .     S
C2087  C2088   1.510   .     D
C2088  C2089   1.389   .     S
C2089  N2091   1.401   .     D
C2089  H2095   1.150   .     S
C2090  C3688   1.401   .     S
C2090  N2092   1.400   .     D
C2090  H2096   1.045   .     S
N2091  Co2100  1.857   .     S
N2092  N3691   1.592   .     S
N2092  Co2098  1.875   .     S
Co2098 N2343   1.857   1_455 S
Co2098 N2368   1.875   1_455 S
Co2099 N2455   1.857   .     S
Co2099 N2479   1.857   .     S
Co2100 N2367   1.857   1_455 S
Co2100 N2344   1.875   1_455 S
C2101  C2102   1.402   .     D
C2101  H2509   1.167   .     S
C2101  C2163   1.405   .     S
C2102  C2103   1.402   .     S
C2102  H2510   1.115   .     S
C2103  C2104   1.510   .     D
C2103  C2161   1.405   .     S
C2104  C2105   1.389   .     S
C2104  C2106   1.401   .     S
C2105  N2107   1.401   .     D
C2105  H2111   1.150   .     S
C2106  N2108   1.400   .     D
C2106  H2112   1.045   .     S
N2107  N2108   1.592   .     S
N2107  Co2597  1.857   .     S
N2108  Co2199  1.875   .     S
C2113  C2114   1.402   .     D
C2113  H2121   1.167   .     S
C2113  C2151   1.405   .     S
C2114  C2115   1.402   .     S
C2114  H2122   1.115   .     S
C2115  C2116   1.510   .     D
C2115  C2149   1.405   .     S
C2116  C2117   1.389   .     S
C2116  C2118   1.401   .     S
C2117  N2119   1.401   .     D
C2117  H2123   1.150   .     S
C2118  N2120   1.400   .     D
C2118  H2124   1.045   .     S
N2119  N2120   1.592   .     S
N2119  Co2198  1.857   .     S
N2120  Co2200  1.875   .     S
C2125  C2126   1.402   .     D
C2125  H2533   1.167   .     S
C2125  C3787   1.405   .     S
C2126  C2127   1.402   .     S
C2126  H2534   1.115   .     S
C2127  C2128   1.510   .     D
C2127  C3785   1.405   .     S
C2128  C2129   1.389   .     S
C2128  C3730   1.401   .     S
C2129  N2131   1.401   .     D
C2129  H2135   1.150   .     S
C2130  N2132   1.400   .     D
C2130  H2136   1.045   .     S
N2131  N3732   1.592   .     S
N2131  Co2597  1.857   .     S
N2132  Co2199  1.875   .     S
C2137  C2138   1.402   .     D
C2137  H2145   1.167   .     S
C2137  C3775   1.405   .     S
C2138  C2139   1.402   .     S
C2138  H2146   1.115   .     S
C2139  C2140   1.510   .     D
C2139  C3773   1.405   .     S
C2140  C2141   1.389   .     S
C2140  C3742   1.401   .     S
C2141  N2143   1.401   .     D
C2141  H2147   1.150   .     S
C2142  N2144   1.400   .     D
C2142  H2148   1.045   .     S
N2143  N3744   1.592   .     S
N2143  Co2298  1.857   .     S
N2144  Co2300  1.875   .     S
C2149  C2150   1.402   .     D
C2150  C2151   1.402   .     S
C2151  C2152   1.510   .     D
C2152  C2153   1.389   .     S
C2152  C2154   1.401   .     S
C2153  N2155   1.401   .     D
C2153  H2159   1.150   .     S
C2154  N2156   1.400   .     D
C2154  H2160   1.045   .     S
N2155  N2156   1.592   .     S
N2156  Co2197  1.875   .     S
H2157  C2549   1.167   .     S
H2158  C2550   1.115   .     S
C2161  C2162   1.402   .     D
C2161  H2169   1.167   .     S
C2162  C2163   1.402   .     S
C2162  H2170   1.115   .     S
C2163  C2164   1.510   .     D
C2164  C2165   1.389   .     S
C2164  C2166   1.401   .     S
C2165  N2167   1.401   .     D
C2165  H2171   1.150   .     S
C2166  N2168   1.400   .     D
C2166  H2172   1.045   .     S
N2167  N2168   1.592   .     S
N2167  Co2300  1.857   .     S
N2168  Co2298  1.875   .     S
C2173  C2174   1.402   .     D
C2174  C2175   1.402   .     S
C2175  C2176   1.510   .     D
C2176  C2177   1.389   .     S
C2177  N2179   1.401   .     D
C2177  H2183   1.150   .     S
C2178  C3776   1.401   .     S
C2178  N2180   1.400   .     D
C2178  H2184   1.045   .     S
N2180  N3779   1.592   .     S
N2180  Co2197  1.875   .     S
H2181  C2573   1.167   .     S
H2182  C2574   1.115   .     S
C2185  C2186   1.402   .     D
C2185  H2193   1.167   .     S
C2186  C2187   1.402   .     S
C2186  H2194   1.115   .     S
C2187  C2188   1.510   .     D
C2188  C2189   1.389   .     S
C2189  N2191   1.401   .     D
C2189  H2195   1.150   .     S
C2190  C3788   1.401   .     S
C2190  N2192   1.400   .     D
C2190  H2196   1.045   .     S
N2191  Co2200  1.857   .     S
N2192  N3791   1.592   .     S
N2192  Co2198  1.875   .     S
Co2199 N2555   1.857   .     S
Co2199 N2579   1.857   .     S
C2201  C2202   1.402   .     D
C2201  H2609   1.167   .     S
C2201  C2263   1.405   .     S
C2202  C2203   1.402   .     S
C2202  H2610   1.115   .     S
C2203  C2204   1.510   .     D
C2203  C2261   1.405   .     S
C2204  C2205   1.389   .     S
C2204  C2206   1.401   .     S
C2205  N2207   1.401   .     D
C2205  H2211   1.150   .     S
C2206  N2208   1.400   .     D
C2206  H2212   1.045   .     S
N2207  N2208   1.592   .     S
N2207  Co2697  1.857   .     S
N2208  Co2299  1.875   .     S
C2213  C2214   1.402   .     D
C2213  H2221   1.167   .     S
C2213  C2251   1.405   .     S
C2214  C2215   1.402   .     S
C2214  H2222   1.115   .     S
C2215  C2216   1.510   .     D
C2215  C2249   1.405   .     S
C2216  C2217   1.389   .     S
C2216  C2218   1.401   .     S
C2217  N2219   1.401   .     D
C2217  H2223   1.150   .     S
C2218  N2220   1.400   .     D
C2218  H2224   1.045   .     S
N2219  N2220   1.592   .     S
N2219  Co2298  1.857   .     S
N2220  Co2300  1.875   .     S
C2225  C2226   1.402   .     D
C2225  H2633   1.167   .     S
C2225  C3887   1.405   .     S
C2226  C2227   1.402   .     S
C2226  H2634   1.115   .     S
C2227  C2228   1.510   .     D
C2227  C3885   1.405   .     S
C2228  C2229   1.389   .     S
C2228  C3830   1.401   .     S
C2229  N2231   1.401   .     D
C2229  H2235   1.150   .     S
C2230  N2232   1.400   .     D
C2230  H2236   1.045   .     S
N2231  N3832   1.592   .     S
N2231  Co2697  1.857   .     S
N2232  Co2299  1.875   .     S
C2237  C2238   1.402   .     D
C2237  H2245   1.167   .     S
C2237  C3875   1.405   .     S
C2238  C2239   1.402   .     S
C2238  H2246   1.115   .     S
C2239  C2240   1.510   .     D
C2239  C3873   1.405   .     S
C2240  C2241   1.389   .     S
C2240  C3842   1.401   .     S
C2241  N2243   1.401   .     D
C2241  H2247   1.150   .     S
C2242  N2244   1.400   .     D
C2242  H2248   1.045   .     S
N2243  N3844   1.592   .     S
N2243  Co2398  1.857   .     S
N2244  Co2400  1.875   .     S
C2249  C2250   1.402   .     D
C2250  C2251   1.402   .     S
C2251  C2252   1.510   .     D
C2252  C2253   1.389   .     S
C2252  C2254   1.401   .     S
C2253  N2255   1.401   .     D
C2253  H2259   1.150   .     S
C2254  N2256   1.400   .     D
C2254  H2260   1.045   .     S
N2255  N2256   1.592   .     S
N2256  Co2297  1.875   .     S
H2257  C2649   1.167   .     S
H2258  C2650   1.115   .     S
C2261  C2262   1.402   .     D
C2261  H2269   1.167   .     S
C2262  C2263   1.402   .     S
C2262  H2270   1.115   .     S
C2263  C2264   1.510   .     D
C2264  C2265   1.389   .     S
C2264  C2266   1.401   .     S
C2265  N2267   1.401   .     D
C2265  H2271   1.150   .     S
C2266  N2268   1.400   .     D
C2266  H2272   1.045   .     S
N2267  N2268   1.592   .     S
N2267  Co2400  1.857   .     S
N2268  Co2398  1.875   .     S
C2273  C2274   1.402   .     D
C2274  C2275   1.402   .     S
C2275  C2276   1.510   .     D
C2276  C2277   1.389   .     S
C2277  N2279   1.401   .     D
C2277  H2283   1.150   .     S
C2278  C3876   1.401   .     S
C2278  N2280   1.400   .     D
C2278  H2284   1.045   .     S
N2280  N3879   1.592   .     S
N2280  Co2297  1.875   .     S
H2281  C2673   1.167   .     S
H2282  C2674   1.115   .     S
C2285  C2286   1.402   .     D
C2285  H2293   1.167   .     S
C2286  C2287   1.402   .     S
C2286  H2294   1.115   .     S
C2287  C2288   1.510   .     D
C2288  C2289   1.389   .     S
C2289  N2291   1.401   .     D
C2289  H2295   1.150   .     S
C2290  C3888   1.401   .     S
C2290  N2292   1.400   .     D
C2290  H2296   1.045   .     S
N2291  Co2300  1.857   .     S
N2292  N3891   1.592   .     S
N2292  Co2298  1.875   .     S
Co2299 N2655   1.857   .     S
Co2299 N2679   1.857   .     S
C2301  C2302   1.402   .     D
C2301  H2709   1.167   .     S
C2301  C2363   1.405   .     S
C2302  C2303   1.402   .     S
C2302  H2710   1.115   .     S
C2303  C2304   1.510   .     D
C2303  C2361   1.405   .     S
C2304  C2305   1.389   .     S
C2304  C2306   1.401   .     S
C2305  N2307   1.401   .     D
C2305  H2311   1.150   .     S
C2306  N2308   1.400   .     D
C2306  H2312   1.045   .     S
N2307  N2308   1.592   .     S
N2307  Co2797  1.857   .     S
N2308  Co2399  1.875   .     S
C2313  C2314   1.402   .     D
C2313  H2321   1.167   .     S
C2313  C2351   1.405   .     S
C2314  C2315   1.402   .     S
C2314  H2322   1.115   .     S
C2315  C2316   1.510   .     D
C2315  C2349   1.405   .     S
C2316  C2317   1.389   .     S
C2316  C2318   1.401   .     S
C2317  N2319   1.401   .     D
C2317  H2323   1.150   .     S
C2318  N2320   1.400   .     D
C2318  H2324   1.045   .     S
N2319  N2320   1.592   .     S
N2319  Co2398  1.857   .     S
N2320  Co2400  1.875   .     S
C2325  C2326   1.402   .     D
C2325  H2733   1.167   .     S
C2325  C3987   1.405   .     S
C2326  C2327   1.402   .     S
C2326  H2734   1.115   .     S
C2327  C2328   1.510   .     D
C2327  C3985   1.405   .     S
C2328  C2329   1.389   .     S
C2328  C3930   1.401   .     S
C2329  N2331   1.401   .     D
C2329  H2335   1.150   .     S
C2330  N2332   1.400   .     D
C2330  H2336   1.045   .     S
N2331  N3932   1.592   .     S
N2331  Co2797  1.857   .     S
N2332  Co2399  1.875   .     S
C2337  C2338   1.402   .     D
C2337  H2345   1.167   .     S
C2337  C3975   1.405   .     S
C2338  C2339   1.402   .     S
C2338  H2346   1.115   .     S
C2339  C2340   1.510   .     D
C2339  C3973   1.405   .     S
C2340  C2341   1.389   .     S
C2340  C3942   1.401   .     S
C2341  N2343   1.401   .     D
C2341  H2347   1.150   .     S
C2342  N2344   1.400   .     D
C2342  H2348   1.045   .     S
N2343  N3944   1.592   .     S
N2343  Co2098  1.857   1_655 S
N2344  Co2100  1.875   1_655 S
C2349  C2350   1.402   .     D
C2350  C2351   1.402   .     S
C2351  C2352   1.510   .     D
C2352  C2353   1.389   .     S
C2352  C2354   1.401   .     S
C2353  N2355   1.401   .     D
C2353  H2359   1.150   .     S
C2354  N2356   1.400   .     D
C2354  H2360   1.045   .     S
N2355  N2356   1.592   .     S
N2356  Co2397  1.875   .     S
H2357  C2749   1.167   .     S
H2358  C2750   1.115   .     S
C2361  C2362   1.402   .     D
C2361  H2369   1.167   .     S
C2362  C2363   1.402   .     S
C2362  H2370   1.115   .     S
C2363  C2364   1.510   .     D
C2364  C2365   1.389   .     S
C2364  C2366   1.401   .     S
C2365  N2367   1.401   .     D
C2365  H2371   1.150   .     S
C2366  N2368   1.400   .     D
C2366  H2372   1.045   .     S
N2367  N2368   1.592   .     S
N2367  Co2100  1.857   1_655 S
N2368  Co2098  1.875   1_655 S
C2373  C2374   1.402   .     D
C2374  C2375   1.402   .     S
C2375  C2376   1.510   .     D
C2376  C2377   1.389   .     S
C2377  N2379   1.401   .     D
C2377  H2383   1.150   .     S
C2378  C3976   1.401   .     S
C2378  N2380   1.400   .     D
C2378  H2384   1.045   .     S
N2380  N3979   1.592   .     S
N2380  Co2397  1.875   .     S
H2381  C2773   1.167   .     S
H2382  C2774   1.115   .     S
C2385  C2386   1.402   .     D
C2385  H2393   1.167   .     S
C2386  C2387   1.402   .     S
C2386  H2394   1.115   .     S
C2387  C2388   1.510   .     D
C2388  C2389   1.389   .     S
C2389  N2391   1.401   .     D
C2389  H2395   1.150   .     S
C2390  C3988   1.401   .     S
C2390  N2392   1.400   .     D
C2390  H2396   1.045   .     S
N2391  Co2400  1.857   .     S
N2392  N3991   1.592   .     S
N2392  Co2398  1.875   .     S
Co2399 N2755   1.857   .     S
Co2399 N2779   1.857   .     S
C2401  C2402   1.402   .     D
C2401  H2809   1.167   .     S
C2401  C2463   1.405   .     S
C2402  C2403   1.402   .     S
C2402  H2810   1.115   .     S
C2403  C2404   1.510   .     D
C2403  C2461   1.405   .     S
C2404  C2405   1.389   .     S
C2404  C2406   1.401   .     S
C2405  N2407   1.401   .     D
C2405  H2411   1.150   .     S
C2406  N2408   1.400   .     D
C2406  H2412   1.045   .     S
N2407  N2408   1.592   .     S
N2407  Co2897  1.857   .     S
N2408  Co2499  1.875   .     S
C2413  C2414   1.402   .     D
C2413  H2421   1.167   .     S
C2413  C2451   1.405   .     S
C2414  C2415   1.402   .     S
C2414  H2422   1.115   .     S
C2415  C2416   1.510   .     D
C2415  C2449   1.405   .     S
C2416  C2417   1.389   .     S
C2416  C2418   1.401   .     S
C2417  N2419   1.401   .     D
C2417  H2423   1.150   .     S
C2418  N2420   1.400   .     D
C2418  H2424   1.045   .     S
N2419  N2420   1.592   .     S
N2419  Co2498  1.857   .     S
N2420  Co2500  1.875   .     S
C2425  C2426   1.402   .     D
C2425  H2833   1.167   .     S
C2425  C4087   1.405   .     S
C2426  C2427   1.402   .     S
C2426  H2834   1.115   .     S
C2427  C2428   1.510   .     D
C2427  C4085   1.405   .     S
C2428  C2429   1.389   .     S
C2428  C4030   1.401   .     S
C2429  N2431   1.401   .     D
C2429  H2435   1.150   .     S
C2430  N2432   1.400   .     D
C2430  H2436   1.045   .     S
N2431  N4032   1.592   .     S
N2431  Co2897  1.857   .     S
N2432  Co2499  1.875   .     S
C2437  C2438   1.402   .     D
C2437  H2445   1.167   .     S
C2437  C4075   1.405   .     S
C2438  C2439   1.402   .     S
C2438  H2446   1.115   .     S
C2439  C2440   1.510   .     D
C2439  C4073   1.405   .     S
C2440  C2441   1.389   .     S
C2440  C4042   1.401   .     S
C2441  N2443   1.401   .     D
C2441  H2447   1.150   .     S
C2442  N2444   1.400   .     D
C2442  H2448   1.045   .     S
N2443  N4044   1.592   .     S
N2443  Co2598  1.857   .     S
N2444  Co2600  1.875   .     S
C2449  C2450   1.402   .     D
C2450  C2451   1.402   .     S
C2451  C2452   1.510   .     D
C2452  C2453   1.389   .     S
C2452  C2454   1.401   .     S
C2453  N2455   1.401   .     D
C2453  H2459   1.150   .     S
C2454  N2456   1.400   .     D
C2454  H2460   1.045   .     S
N2455  N2456   1.592   .     S
N2456  Co2497  1.875   .     S
H2457  C2849   1.167   .     S
H2458  C2850   1.115   .     S
C2461  C2462   1.402   .     D
C2461  H2469   1.167   .     S
C2462  C2463   1.402   .     S
C2462  H2470   1.115   .     S
C2463  C2464   1.510   .     D
C2464  C2465   1.389   .     S
C2464  C2466   1.401   .     S
C2465  N2467   1.401   .     D
C2465  H2471   1.150   .     S
C2466  N2468   1.400   .     D
C2466  H2472   1.045   .     S
N2467  N2468   1.592   .     S
N2467  Co2600  1.857   .     S
N2468  Co2598  1.875   .     S
C2473  C2474   1.402   .     D
C2474  C2475   1.402   .     S
C2475  C2476   1.510   .     D
C2476  C2477   1.389   .     S
C2477  N2479   1.401   .     D
C2477  H2483   1.150   .     S
C2478  C4076   1.401   .     S
C2478  N2480   1.400   .     D
C2478  H2484   1.045   .     S
N2480  N4079   1.592   .     S
N2480  Co2497  1.875   .     S
H2481  C2873   1.167   .     S
H2482  C2874   1.115   .     S
C2485  C2486   1.402   .     D
C2485  H2493   1.167   .     S
C2486  C2487   1.402   .     S
C2486  H2494   1.115   .     S
C2487  C2488   1.510   .     D
C2488  C2489   1.389   .     S
C2489  N2491   1.401   .     D
C2489  H2495   1.150   .     S
C2490  C4088   1.401   .     S
C2490  N2492   1.400   .     D
C2490  H2496   1.045   .     S
N2491  Co2500  1.857   .     S
N2492  N4091   1.592   .     S
N2492  Co2498  1.875   .     S
Co2498 N2743   1.857   1_455 S
Co2498 N2768   1.875   1_455 S
Co2499 N2855   1.857   .     S
Co2499 N2879   1.857   .     S
Co2500 N2767   1.857   1_455 S
Co2500 N2744   1.875   1_455 S
C2501  C2502   1.402   .     D
C2501  H2909   1.167   .     S
C2501  C2563   1.405   .     S
C2502  C2503   1.402   .     S
C2502  H2910   1.115   .     S
C2503  C2504   1.510   .     D
C2503  C2561   1.405   .     S
C2504  C2505   1.389   .     S
C2504  C2506   1.401   .     S
C2505  N2507   1.401   .     D
C2505  H2511   1.150   .     S
C2506  N2508   1.400   .     D
C2506  H2512   1.045   .     S
N2507  N2508   1.592   .     S
N2507  Co2997  1.857   .     S
N2508  Co2599  1.875   .     S
C2513  C2514   1.402   .     D
C2513  H2521   1.167   .     S
C2513  C2551   1.405   .     S
C2514  C2515   1.402   .     S
C2514  H2522   1.115   .     S
C2515  C2516   1.510   .     D
C2515  C2549   1.405   .     S
C2516  C2517   1.389   .     S
C2516  C2518   1.401   .     S
C2517  N2519   1.401   .     D
C2517  H2523   1.150   .     S
C2518  N2520   1.400   .     D
C2518  H2524   1.045   .     S
N2519  N2520   1.592   .     S
N2519  Co2598  1.857   .     S
N2520  Co2600  1.875   .     S
C2525  C2526   1.402   .     D
C2525  H2933   1.167   .     S
C2525  C4187   1.405   .     S
C2526  C2527   1.402   .     S
C2526  H2934   1.115   .     S
C2527  C2528   1.510   .     D
C2527  C4185   1.405   .     S
C2528  C2529   1.389   .     S
C2528  C4130   1.401   .     S
C2529  N2531   1.401   .     D
C2529  H2535   1.150   .     S
C2530  N2532   1.400   .     D
C2530  H2536   1.045   .     S
N2531  N4132   1.592   .     S
N2531  Co2997  1.857   .     S
N2532  Co2599  1.875   .     S
C2537  C2538   1.402   .     D
C2537  H2545   1.167   .     S
C2537  C4175   1.405   .     S
C2538  C2539   1.402   .     S
C2538  H2546   1.115   .     S
C2539  C2540   1.510   .     D
C2539  C4173   1.405   .     S
C2540  C2541   1.389   .     S
C2540  C4142   1.401   .     S
C2541  N2543   1.401   .     D
C2541  H2547   1.150   .     S
C2542  N2544   1.400   .     D
C2542  H2548   1.045   .     S
N2543  N4144   1.592   .     S
N2543  Co2698  1.857   .     S
N2544  Co2700  1.875   .     S
C2549  C2550   1.402   .     D
C2550  C2551   1.402   .     S
C2551  C2552   1.510   .     D
C2552  C2553   1.389   .     S
C2552  C2554   1.401   .     S
C2553  N2555   1.401   .     D
C2553  H2559   1.150   .     S
C2554  N2556   1.400   .     D
C2554  H2560   1.045   .     S
N2555  N2556   1.592   .     S
N2556  Co2597  1.875   .     S
H2557  C2949   1.167   .     S
H2558  C2950   1.115   .     S
C2561  C2562   1.402   .     D
C2561  H2569   1.167   .     S
C2562  C2563   1.402   .     S
C2562  H2570   1.115   .     S
C2563  C2564   1.510   .     D
C2564  C2565   1.389   .     S
C2564  C2566   1.401   .     S
C2565  N2567   1.401   .     D
C2565  H2571   1.150   .     S
C2566  N2568   1.400   .     D
C2566  H2572   1.045   .     S
N2567  N2568   1.592   .     S
N2567  Co2700  1.857   .     S
N2568  Co2698  1.875   .     S
C2573  C2574   1.402   .     D
C2574  C2575   1.402   .     S
C2575  C2576   1.510   .     D
C2576  C2577   1.389   .     S
C2577  N2579   1.401   .     D
C2577  H2583   1.150   .     S
C2578  C4176   1.401   .     S
C2578  N2580   1.400   .     D
C2578  H2584   1.045   .     S
N2580  N4179   1.592   .     S
N2580  Co2597  1.875   .     S
H2581  C2973   1.167   .     S
H2582  C2974   1.115   .     S
C2585  C2586   1.402   .     D
C2585  H2593   1.167   .     S
C2586  C2587   1.402   .     S
C2586  H2594   1.115   .     S
C2587  C2588   1.510   .     D
C2588  C2589   1.389   .     S
C2589  N2591   1.401   .     D
C2589  H2595   1.150   .     S
C2590  C4188   1.401   .     S
C2590  N2592   1.400   .     D
C2590  H2596   1.045   .     S
N2591  Co2600  1.857   .     S
N2592  N4191   1.592   .     S
N2592  Co2598  1.875   .     S
Co2599 N2955   1.857   .     S
Co2599 N2979   1.857   .     S
C2601  C2602   1.402   .     D
C2601  H3009   1.167   .     S
C2601  C2663   1.405   .     S
C2602  C2603   1.402   .     S
C2602  H3010   1.115   .     S
C2603  C2604   1.510   .     D
C2603  C2661   1.405   .     S
C2604  C2605   1.389   .     S
C2604  C2606   1.401   .     S
C2605  N2607   1.401   .     D
C2605  H2611   1.150   .     S
C2606  N2608   1.400   .     D
C2606  H2612   1.045   .     S
N2607  N2608   1.592   .     S
N2607  Co3097  1.857   .     S
N2608  Co2699  1.875   .     S
C2613  C2614   1.402   .     D
C2613  H2621   1.167   .     S
C2613  C2651   1.405   .     S
C2614  C2615   1.402   .     S
C2614  H2622   1.115   .     S
C2615  C2616   1.510   .     D
C2615  C2649   1.405   .     S
C2616  C2617   1.389   .     S
C2616  C2618   1.401   .     S
C2617  N2619   1.401   .     D
C2617  H2623   1.150   .     S
C2618  N2620   1.400   .     D
C2618  H2624   1.045   .     S
N2619  N2620   1.592   .     S
N2619  Co2698  1.857   .     S
N2620  Co2700  1.875   .     S
C2625  C2626   1.402   .     D
C2625  H3033   1.167   .     S
C2625  C4287   1.405   .     S
C2626  C2627   1.402   .     S
C2626  H3034   1.115   .     S
C2627  C2628   1.510   .     D
C2627  C4285   1.405   .     S
C2628  C2629   1.389   .     S
C2628  C4230   1.401   .     S
C2629  N2631   1.401   .     D
C2629  H2635   1.150   .     S
C2630  N2632   1.400   .     D
C2630  H2636   1.045   .     S
N2631  N4232   1.592   .     S
N2631  Co3097  1.857   .     S
N2632  Co2699  1.875   .     S
C2637  C2638   1.402   .     D
C2637  H2645   1.167   .     S
C2637  C4275   1.405   .     S
C2638  C2639   1.402   .     S
C2638  H2646   1.115   .     S
C2639  C2640   1.510   .     D
C2639  C4273   1.405   .     S
C2640  C2641   1.389   .     S
C2640  C4242   1.401   .     S
C2641  N2643   1.401   .     D
C2641  H2647   1.150   .     S
C2642  N2644   1.400   .     D
C2642  H2648   1.045   .     S
N2643  N4244   1.592   .     S
N2643  Co2798  1.857   .     S
N2644  Co2800  1.875   .     S
C2649  C2650   1.402   .     D
C2650  C2651   1.402   .     S
C2651  C2652   1.510   .     D
C2652  C2653   1.389   .     S
C2652  C2654   1.401   .     S
C2653  N2655   1.401   .     D
C2653  H2659   1.150   .     S
C2654  N2656   1.400   .     D
C2654  H2660   1.045   .     S
N2655  N2656   1.592   .     S
N2656  Co2697  1.875   .     S
H2657  C3049   1.167   .     S
H2658  C3050   1.115   .     S
C2661  C2662   1.402   .     D
C2661  H2669   1.167   .     S
C2662  C2663   1.402   .     S
C2662  H2670   1.115   .     S
C2663  C2664   1.510   .     D
C2664  C2665   1.389   .     S
C2664  C2666   1.401   .     S
C2665  N2667   1.401   .     D
C2665  H2671   1.150   .     S
C2666  N2668   1.400   .     D
C2666  H2672   1.045   .     S
N2667  N2668   1.592   .     S
N2667  Co2800  1.857   .     S
N2668  Co2798  1.875   .     S
C2673  C2674   1.402   .     D
C2674  C2675   1.402   .     S
C2675  C2676   1.510   .     D
C2676  C2677   1.389   .     S
C2677  N2679   1.401   .     D
C2677  H2683   1.150   .     S
C2678  C4276   1.401   .     S
C2678  N2680   1.400   .     D
C2678  H2684   1.045   .     S
N2680  N4279   1.592   .     S
N2680  Co2697  1.875   .     S
H2681  C3073   1.167   .     S
H2682  C3074   1.115   .     S
C2685  C2686   1.402   .     D
C2685  H2693   1.167   .     S
C2686  C2687   1.402   .     S
C2686  H2694   1.115   .     S
C2687  C2688   1.510   .     D
C2688  C2689   1.389   .     S
C2689  N2691   1.401   .     D
C2689  H2695   1.150   .     S
C2690  C4288   1.401   .     S
C2690  N2692   1.400   .     D
C2690  H2696   1.045   .     S
N2691  Co2700  1.857   .     S
N2692  N4291   1.592   .     S
N2692  Co2698  1.875   .     S
Co2699 N3055   1.857   .     S
Co2699 N3079   1.857   .     S
C2701  C2702   1.402   .     D
C2701  H3109   1.167   .     S
C2701  C2763   1.405   .     S
C2702  C2703   1.402   .     S
C2702  H3110   1.115   .     S
C2703  C2704   1.510   .     D
C2703  C2761   1.405   .     S
C2704  C2705   1.389   .     S
C2704  C2706   1.401   .     S
C2705  N2707   1.401   .     D
C2705  H2711   1.150   .     S
C2706  N2708   1.400   .     D
C2706  H2712   1.045   .     S
N2707  N2708   1.592   .     S
N2707  Co3197  1.857   .     S
N2708  Co2799  1.875   .     S
C2713  C2714   1.402   .     D
C2713  H2721   1.167   .     S
C2713  C2751   1.405   .     S
C2714  C2715   1.402   .     S
C2714  H2722   1.115   .     S
C2715  C2716   1.510   .     D
C2715  C2749   1.405   .     S
C2716  C2717   1.389   .     S
C2716  C2718   1.401   .     S
C2717  N2719   1.401   .     D
C2717  H2723   1.150   .     S
C2718  N2720   1.400   .     D
C2718  H2724   1.045   .     S
N2719  N2720   1.592   .     S
N2719  Co2798  1.857   .     S
N2720  Co2800  1.875   .     S
C2725  C2726   1.402   .     D
C2725  H3133   1.167   .     S
C2725  C4387   1.405   .     S
C2726  C2727   1.402   .     S
C2726  H3134   1.115   .     S
C2727  C2728   1.510   .     D
C2727  C4385   1.405   .     S
C2728  C2729   1.389   .     S
C2728  C4330   1.401   .     S
C2729  N2731   1.401   .     D
C2729  H2735   1.150   .     S
C2730  N2732   1.400   .     D
C2730  H2736   1.045   .     S
N2731  N4332   1.592   .     S
N2731  Co3197  1.857   .     S
N2732  Co2799  1.875   .     S
C2737  C2738   1.402   .     D
C2737  H2745   1.167   .     S
C2737  C4375   1.405   .     S
C2738  C2739   1.402   .     S
C2738  H2746   1.115   .     S
C2739  C2740   1.510   .     D
C2739  C4373   1.405   .     S
C2740  C2741   1.389   .     S
C2740  C4342   1.401   .     S
C2741  N2743   1.401   .     D
C2741  H2747   1.150   .     S
C2742  N2744   1.400   .     D
C2742  H2748   1.045   .     S
N2743  N4344   1.592   .     S
N2743  Co2498  1.857   1_655 S
N2744  Co2500  1.875   1_655 S
C2749  C2750   1.402   .     D
C2750  C2751   1.402   .     S
C2751  C2752   1.510   .     D
C2752  C2753   1.389   .     S
C2752  C2754   1.401   .     S
C2753  N2755   1.401   .     D
C2753  H2759   1.150   .     S
C2754  N2756   1.400   .     D
C2754  H2760   1.045   .     S
N2755  N2756   1.592   .     S
N2756  Co2797  1.875   .     S
H2757  C3149   1.167   .     S
H2758  C3150   1.115   .     S
C2761  C2762   1.402   .     D
C2761  H2769   1.167   .     S
C2762  C2763   1.402   .     S
C2762  H2770   1.115   .     S
C2763  C2764   1.510   .     D
C2764  C2765   1.389   .     S
C2764  C2766   1.401   .     S
C2765  N2767   1.401   .     D
C2765  H2771   1.150   .     S
C2766  N2768   1.400   .     D
C2766  H2772   1.045   .     S
N2767  N2768   1.592   .     S
N2767  Co2500  1.857   1_655 S
N2768  Co2498  1.875   1_655 S
C2773  C2774   1.402   .     D
C2774  C2775   1.402   .     S
C2775  C2776   1.510   .     D
C2776  C2777   1.389   .     S
C2777  N2779   1.401   .     D
C2777  H2783   1.150   .     S
C2778  C4376   1.401   .     S
C2778  N2780   1.400   .     D
C2778  H2784   1.045   .     S
N2780  N4379   1.592   .     S
N2780  Co2797  1.875   .     S
H2781  C3173   1.167   .     S
H2782  C3174   1.115   .     S
C2785  C2786   1.402   .     D
C2785  H2793   1.167   .     S
C2786  C2787   1.402   .     S
C2786  H2794   1.115   .     S
C2787  C2788   1.510   .     D
C2788  C2789   1.389   .     S
C2789  N2791   1.401   .     D
C2789  H2795   1.150   .     S
C2790  C4388   1.401   .     S
C2790  N2792   1.400   .     D
C2790  H2796   1.045   .     S
N2791  Co2800  1.857   .     S
N2792  N4391   1.592   .     S
N2792  Co2798  1.875   .     S
Co2799 N3155   1.857   .     S
Co2799 N3179   1.857   .     S
C2801  C2802   1.402   .     D
C2801  H1609   1.167   1_565 S
C2801  C2863   1.405   .     S
C2802  C2803   1.402   .     S
C2802  H1610   1.115   1_565 S
C2803  C2804   1.510   .     D
C2803  C2861   1.405   .     S
C2804  C2805   1.389   .     S
C2804  C2806   1.401   .     S
C2805  N2807   1.401   .     D
C2805  H2811   1.150   .     S
C2806  N2808   1.400   .     D
C2806  H2812   1.045   .     S
N2807  N2808   1.592   .     S
N2807  Co1697  1.857   1_565 S
N2808  Co2899  1.875   .     S
C2813  C2814   1.402   .     D
C2813  H2821   1.167   .     S
C2813  C2851   1.405   .     S
C2814  C2815   1.402   .     S
C2814  H2822   1.115   .     S
C2815  C2816   1.510   .     D
C2815  C2849   1.405   .     S
C2816  C2817   1.389   .     S
C2816  C2818   1.401   .     S
C2817  N2819   1.401   .     D
C2817  H2823   1.150   .     S
C2818  N2820   1.400   .     D
C2818  H2824   1.045   .     S
N2819  N2820   1.592   .     S
N2819  Co2898  1.857   .     S
N2820  Co2900  1.875   .     S
C2825  C2826   1.402   .     D
C2825  H1633   1.167   1_565 S
C2825  C4487   1.405   .     S
C2826  C2827   1.402   .     S
C2826  H1634   1.115   1_565 S
C2827  C2828   1.510   .     D
C2827  C4485   1.405   .     S
C2828  C2829   1.389   .     S
C2828  C4430   1.401   .     S
C2829  N2831   1.401   .     D
C2829  H2835   1.150   .     S
C2830  N2832   1.400   .     D
C2830  H2836   1.045   .     S
N2831  N4432   1.592   .     S
N2831  Co1697  1.857   1_565 S
N2832  Co2899  1.875   .     S
C2837  C2838   1.402   .     D
C2837  H2845   1.167   .     S
C2837  C4475   1.405   .     S
C2838  C2839   1.402   .     S
C2838  H2846   1.115   .     S
C2839  C2840   1.510   .     D
C2839  C4473   1.405   .     S
C2840  C2841   1.389   .     S
C2840  C4442   1.401   .     S
C2841  N2843   1.401   .     D
C2841  H2847   1.150   .     S
C2842  N2844   1.400   .     D
C2842  H2848   1.045   .     S
N2843  N4444   1.592   .     S
N2843  Co2998  1.857   .     S
N2844  Co3000  1.875   .     S
C2849  C2850   1.402   .     D
C2850  C2851   1.402   .     S
C2851  C2852   1.510   .     D
C2852  C2853   1.389   .     S
C2852  C2854   1.401   .     S
C2853  N2855   1.401   .     D
C2853  H2859   1.150   .     S
C2854  N2856   1.400   .     D
C2854  H2860   1.045   .     S
N2855  N2856   1.592   .     S
N2856  Co2897  1.875   .     S
H2857  C1649   1.167   1_565 S
H2858  C1650   1.115   1_565 S
C2861  C2862   1.402   .     D
C2861  H2869   1.167   .     S
C2862  C2863   1.402   .     S
C2862  H2870   1.115   .     S
C2863  C2864   1.510   .     D
C2864  C2865   1.389   .     S
C2864  C2866   1.401   .     S
C2865  N2867   1.401   .     D
C2865  H2871   1.150   .     S
C2866  N2868   1.400   .     D
C2866  H2872   1.045   .     S
N2867  N2868   1.592   .     S
N2867  Co3000  1.857   .     S
N2868  Co2998  1.875   .     S
C2873  C2874   1.402   .     D
C2874  C2875   1.402   .     S
C2875  C2876   1.510   .     D
C2876  C2877   1.389   .     S
C2877  N2879   1.401   .     D
C2877  H2883   1.150   .     S
C2878  C4476   1.401   .     S
C2878  N2880   1.400   .     D
C2878  H2884   1.045   .     S
N2880  N4479   1.592   .     S
N2880  Co2897  1.875   .     S
H2881  C1673   1.167   1_565 S
H2882  C1674   1.115   1_565 S
C2885  C2886   1.402   .     D
C2885  H2893   1.167   .     S
C2886  C2887   1.402   .     S
C2886  H2894   1.115   .     S
C2887  C2888   1.510   .     D
C2888  C2889   1.389   .     S
C2889  N2891   1.401   .     D
C2889  H2895   1.150   .     S
C2890  C4488   1.401   .     S
C2890  N2892   1.400   .     D
C2890  H2896   1.045   .     S
N2891  Co2900  1.857   .     S
N2892  N4491   1.592   .     S
N2892  Co2898  1.875   .     S
Co2898 N3143   1.857   1_455 S
Co2898 N3168   1.875   1_455 S
Co2899 N1655   1.857   1_565 S
Co2899 N1679   1.857   1_565 S
Co2900 N3167   1.857   1_455 S
Co2900 N3144   1.875   1_455 S
C2901  C2902   1.402   .     D
C2901  H1709   1.167   1_565 S
C2901  C2963   1.405   .     S
C2902  C2903   1.402   .     S
C2902  H1710   1.115   1_565 S
C2903  C2904   1.510   .     D
C2903  C2961   1.405   .     S
C2904  C2905   1.389   .     S
C2904  C2906   1.401   .     S
C2905  N2907   1.401   .     D
C2905  H2911   1.150   .     S
C2906  N2908   1.400   .     D
C2906  H2912   1.045   .     S
N2907  N2908   1.592   .     S
N2907  Co1797  1.857   1_565 S
N2908  Co2999  1.875   .     S
C2913  C2914   1.402   .     D
C2913  H2921   1.167   .     S
C2913  C2951   1.405   .     S
C2914  C2915   1.402   .     S
C2914  H2922   1.115   .     S
C2915  C2916   1.510   .     D
C2915  C2949   1.405   .     S
C2916  C2917   1.389   .     S
C2916  C2918   1.401   .     S
C2917  N2919   1.401   .     D
C2917  H2923   1.150   .     S
C2918  N2920   1.400   .     D
C2918  H2924   1.045   .     S
N2919  N2920   1.592   .     S
N2919  Co2998  1.857   .     S
N2920  Co3000  1.875   .     S
C2925  C2926   1.402   .     D
C2925  H1733   1.167   1_565 S
C2925  C4587   1.405   .     S
C2926  C2927   1.402   .     S
C2926  H1734   1.115   1_565 S
C2927  C2928   1.510   .     D
C2927  C4585   1.405   .     S
C2928  C2929   1.389   .     S
C2928  C4530   1.401   .     S
C2929  N2931   1.401   .     D
C2929  H2935   1.150   .     S
C2930  N2932   1.400   .     D
C2930  H2936   1.045   .     S
N2931  N4532   1.592   .     S
N2931  Co1797  1.857   1_565 S
N2932  Co2999  1.875   .     S
C2937  C2938   1.402   .     D
C2937  H2945   1.167   .     S
C2937  C4575   1.405   .     S
C2938  C2939   1.402   .     S
C2938  H2946   1.115   .     S
C2939  C2940   1.510   .     D
C2939  C4573   1.405   .     S
C2940  C2941   1.389   .     S
C2940  C4542   1.401   .     S
C2941  N2943   1.401   .     D
C2941  H2947   1.150   .     S
C2942  N2944   1.400   .     D
C2942  H2948   1.045   .     S
N2943  N4544   1.592   .     S
N2943  Co3098  1.857   .     S
N2944  Co3100  1.875   .     S
C2949  C2950   1.402   .     D
C2950  C2951   1.402   .     S
C2951  C2952   1.510   .     D
C2952  C2953   1.389   .     S
C2952  C2954   1.401   .     S
C2953  N2955   1.401   .     D
C2953  H2959   1.150   .     S
C2954  N2956   1.400   .     D
C2954  H2960   1.045   .     S
N2955  N2956   1.592   .     S
N2956  Co2997  1.875   .     S
H2957  C1749   1.167   1_565 S
H2958  C1750   1.115   1_565 S
C2961  C2962   1.402   .     D
C2961  H2969   1.167   .     S
C2962  C2963   1.402   .     S
C2962  H2970   1.115   .     S
C2963  C2964   1.510   .     D
C2964  C2965   1.389   .     S
C2964  C2966   1.401   .     S
C2965  N2967   1.401   .     D
C2965  H2971   1.150   .     S
C2966  N2968   1.400   .     D
C2966  H2972   1.045   .     S
N2967  N2968   1.592   .     S
N2967  Co3100  1.857   .     S
N2968  Co3098  1.875   .     S
C2973  C2974   1.402   .     D
C2974  C2975   1.402   .     S
C2975  C2976   1.510   .     D
C2976  C2977   1.389   .     S
C2977  N2979   1.401   .     D
C2977  H2983   1.150   .     S
C2978  C4576   1.401   .     S
C2978  N2980   1.400   .     D
C2978  H2984   1.045   .     S
N2980  N4579   1.592   .     S
N2980  Co2997  1.875   .     S
H2981  C1773   1.167   1_565 S
H2982  C1774   1.115   1_565 S
C2985  C2986   1.402   .     D
C2985  H2993   1.167   .     S
C2986  C2987   1.402   .     S
C2986  H2994   1.115   .     S
C2987  C2988   1.510   .     D
C2988  C2989   1.389   .     S
C2989  N2991   1.401   .     D
C2989  H2995   1.150   .     S
C2990  C4588   1.401   .     S
C2990  N2992   1.400   .     D
C2990  H2996   1.045   .     S
N2991  Co3000  1.857   .     S
N2992  N4591   1.592   .     S
N2992  Co2998  1.875   .     S
Co2999 N1755   1.857   1_565 S
Co2999 N1779   1.857   1_565 S
C3001  C3002   1.402   .     D
C3001  H1809   1.167   1_565 S
C3001  C3063   1.405   .     S
C3002  C3003   1.402   .     S
C3002  H1810   1.115   1_565 S
C3003  C3004   1.510   .     D
C3003  C3061   1.405   .     S
C3004  C3005   1.389   .     S
C3004  C3006   1.401   .     S
C3005  N3007   1.401   .     D
C3005  H3011   1.150   .     S
C3006  N3008   1.400   .     D
C3006  H3012   1.045   .     S
N3007  N3008   1.592   .     S
N3007  Co1897  1.857   1_565 S
N3008  Co3099  1.875   .     S
C3013  C3014   1.402   .     D
C3013  H3021   1.167   .     S
C3013  C3051   1.405   .     S
C3014  C3015   1.402   .     S
C3014  H3022   1.115   .     S
C3015  C3016   1.510   .     D
C3015  C3049   1.405   .     S
C3016  C3017   1.389   .     S
C3016  C3018   1.401   .     S
C3017  N3019   1.401   .     D
C3017  H3023   1.150   .     S
C3018  N3020   1.400   .     D
C3018  H3024   1.045   .     S
N3019  N3020   1.592   .     S
N3019  Co3098  1.857   .     S
N3020  Co3100  1.875   .     S
C3025  C3026   1.402   .     D
C3025  H1833   1.167   1_565 S
C3025  C4687   1.405   .     S
C3026  C3027   1.402   .     S
C3026  H1834   1.115   1_565 S
C3027  C3028   1.510   .     D
C3027  C4685   1.405   .     S
C3028  C3029   1.389   .     S
C3028  C4630   1.401   .     S
C3029  N3031   1.401   .     D
C3029  H3035   1.150   .     S
C3030  N3032   1.400   .     D
C3030  H3036   1.045   .     S
N3031  N4632   1.592   .     S
N3031  Co1897  1.857   1_565 S
N3032  Co3099  1.875   .     S
C3037  C3038   1.402   .     D
C3037  H3045   1.167   .     S
C3037  C4675   1.405   .     S
C3038  C3039   1.402   .     S
C3038  H3046   1.115   .     S
C3039  C3040   1.510   .     D
C3039  C4673   1.405   .     S
C3040  C3041   1.389   .     S
C3040  C4642   1.401   .     S
C3041  N3043   1.401   .     D
C3041  H3047   1.150   .     S
C3042  N3044   1.400   .     D
C3042  H3048   1.045   .     S
N3043  N4644   1.592   .     S
N3043  Co3198  1.857   .     S
N3044  Co3200  1.875   .     S
C3049  C3050   1.402   .     D
C3050  C3051   1.402   .     S
C3051  C3052   1.510   .     D
C3052  C3053   1.389   .     S
C3052  C3054   1.401   .     S
C3053  N3055   1.401   .     D
C3053  H3059   1.150   .     S
C3054  N3056   1.400   .     D
C3054  H3060   1.045   .     S
N3055  N3056   1.592   .     S
N3056  Co3097  1.875   .     S
H3057  C1849   1.167   1_565 S
H3058  C1850   1.115   1_565 S
C3061  C3062   1.402   .     D
C3061  H3069   1.167   .     S
C3062  C3063   1.402   .     S
C3062  H3070   1.115   .     S
C3063  C3064   1.510   .     D
C3064  C3065   1.389   .     S
C3064  C3066   1.401   .     S
C3065  N3067   1.401   .     D
C3065  H3071   1.150   .     S
C3066  N3068   1.400   .     D
C3066  H3072   1.045   .     S
N3067  N3068   1.592   .     S
N3067  Co3200  1.857   .     S
N3068  Co3198  1.875   .     S
C3073  C3074   1.402   .     D
C3074  C3075   1.402   .     S
C3075  C3076   1.510   .     D
C3076  C3077   1.389   .     S
C3077  N3079   1.401   .     D
C3077  H3083   1.150   .     S
C3078  C4676   1.401   .     S
C3078  N3080   1.400   .     D
C3078  H3084   1.045   .     S
N3080  N4679   1.592   .     S
N3080  Co3097  1.875   .     S
H3081  C1873   1.167   1_565 S
H3082  C1874   1.115   1_565 S
C3085  C3086   1.402   .     D
C3085  H3093   1.167   .     S
C3086  C3087   1.402   .     S
C3086  H3094   1.115   .     S
C3087  C3088   1.510   .     D
C3088  C3089   1.389   .     S
C3089  N3091   1.401   .     D
C3089  H3095   1.150   .     S
C3090  C4688   1.401   .     S
C3090  N3092   1.400   .     D
C3090  H3096   1.045   .     S
N3091  Co3100  1.857   .     S
N3092  N4691   1.592   .     S
N3092  Co3098  1.875   .     S
Co3099 N1855   1.857   1_565 S
Co3099 N1879   1.857   1_565 S
C3101  C3102   1.402   .     D
C3101  H1909   1.167   1_565 S
C3101  C3163   1.405   .     S
C3102  C3103   1.402   .     S
C3102  H1910   1.115   1_565 S
C3103  C3104   1.510   .     D
C3103  C3161   1.405   .     S
C3104  C3105   1.389   .     S
C3104  C3106   1.401   .     S
C3105  N3107   1.401   .     D
C3105  H3111   1.150   .     S
C3106  N3108   1.400   .     D
C3106  H3112   1.045   .     S
N3107  N3108   1.592   .     S
N3107  Co1997  1.857   1_565 S
N3108  Co3199  1.875   .     S
C3113  C3114   1.402   .     D
C3113  H3121   1.167   .     S
C3113  C3151   1.405   .     S
C3114  C3115   1.402   .     S
C3114  H3122   1.115   .     S
C3115  C3116   1.510   .     D
C3115  C3149   1.405   .     S
C3116  C3117   1.389   .     S
C3116  C3118   1.401   .     S
C3117  N3119   1.401   .     D
C3117  H3123   1.150   .     S
C3118  N3120   1.400   .     D
C3118  H3124   1.045   .     S
N3119  N3120   1.592   .     S
N3119  Co3198  1.857   .     S
N3120  Co3200  1.875   .     S
C3125  C3126   1.402   .     D
C3125  H1933   1.167   1_565 S
C3125  C4787   1.405   .     S
C3126  C3127   1.402   .     S
C3126  H1934   1.115   1_565 S
C3127  C3128   1.510   .     D
C3127  C4785   1.405   .     S
C3128  C3129   1.389   .     S
C3128  C4730   1.401   .     S
C3129  N3131   1.401   .     D
C3129  H3135   1.150   .     S
C3130  N3132   1.400   .     D
C3130  H3136   1.045   .     S
N3131  N4732   1.592   .     S
N3131  Co1997  1.857   1_565 S
N3132  Co3199  1.875   .     S
C3137  C3138   1.402   .     D
C3137  H3145   1.167   .     S
C3137  C4775   1.405   .     S
C3138  C3139   1.402   .     S
C3138  H3146   1.115   .     S
C3139  C3140   1.510   .     D
C3139  C4773   1.405   .     S
C3140  C3141   1.389   .     S
C3140  C4742   1.401   .     S
C3141  N3143   1.401   .     D
C3141  H3147   1.150   .     S
C3142  N3144   1.400   .     D
C3142  H3148   1.045   .     S
N3143  N4744   1.592   .     S
N3143  Co2898  1.857   1_655 S
N3144  Co2900  1.875   1_655 S
C3149  C3150   1.402   .     D
C3150  C3151   1.402   .     S
C3151  C3152   1.510   .     D
C3152  C3153   1.389   .     S
C3152  C3154   1.401   .     S
C3153  N3155   1.401   .     D
C3153  H3159   1.150   .     S
C3154  N3156   1.400   .     D
C3154  H3160   1.045   .     S
N3155  N3156   1.592   .     S
N3156  Co3197  1.875   .     S
H3157  C1949   1.167   1_565 S
H3158  C1950   1.115   1_565 S
C3161  C3162   1.402   .     D
C3161  H3169   1.167   .     S
C3162  C3163   1.402   .     S
C3162  H3170   1.115   .     S
C3163  C3164   1.510   .     D
C3164  C3165   1.389   .     S
C3164  C3166   1.401   .     S
C3165  N3167   1.401   .     D
C3165  H3171   1.150   .     S
C3166  N3168   1.400   .     D
C3166  H3172   1.045   .     S
N3167  N3168   1.592   .     S
N3167  Co2900  1.857   1_655 S
N3168  Co2898  1.875   1_655 S
C3173  C3174   1.402   .     D
C3174  C3175   1.402   .     S
C3175  C3176   1.510   .     D
C3176  C3177   1.389   .     S
C3177  N3179   1.401   .     D
C3177  H3183   1.150   .     S
C3178  C4776   1.401   .     S
C3178  N3180   1.400   .     D
C3178  H3184   1.045   .     S
N3180  N4779   1.592   .     S
N3180  Co3197  1.875   .     S
H3181  C1973   1.167   1_565 S
H3182  C1974   1.115   1_565 S
C3185  C3186   1.402   .     D
C3185  H3193   1.167   .     S
C3186  C3187   1.402   .     S
C3186  H3194   1.115   .     S
C3187  C3188   1.510   .     D
C3188  C3189   1.389   .     S
C3189  N3191   1.401   .     D
C3189  H3195   1.150   .     S
C3190  C4788   1.401   .     S
C3190  N3192   1.400   .     D
C3190  H3196   1.045   .     S
N3191  Co3200  1.857   .     S
N3192  N4791   1.592   .     S
N3192  Co3198  1.875   .     S
Co3199 N1955   1.857   1_565 S
Co3199 N1979   1.857   1_565 S
C3201  C3202   1.402   .     D
C3201  H3609   1.167   .     S
C3201  C3263   1.405   .     S
C3202  C3203   1.402   .     S
C3202  H3610   1.115   .     S
C3203  C3204   1.510   .     D
C3203  C3261   1.405   .     S
C3204  C3205   1.389   .     S
C3204  C3206   1.401   .     S
C3205  N3207   1.401   .     D
C3205  H3211   1.150   .     S
C3206  N3208   1.400   .     D
C3206  H3212   1.045   .     S
N3207  N3208   1.592   .     S
N3207  Co3697  1.857   .     S
N3208  Co3299  1.875   .     S
H3209  C4401   1.167   1_545 S
H3210  C4402   1.115   1_545 S
C3213  C3214   1.402   .     D
C3213  H3221   1.167   .     S
C3213  C3251   1.405   .     S
C3214  C3215   1.402   .     S
C3214  H3222   1.115   .     S
C3215  C3216   1.510   .     D
C3215  C3249   1.405   .     S
C3216  C3217   1.389   .     S
C3216  C3218   1.401   .     S
C3217  N3219   1.401   .     D
C3217  H3223   1.150   .     S
C3218  N3220   1.400   .     D
C3218  H3224   1.045   .     S
N3219  N3220   1.592   .     S
N3219  Co3298  1.857   .     S
N3220  Co3300  1.875   .     S
C3225  C3226   1.402   .     D
C3225  H3633   1.167   .     S
C3225  C4887   1.405   .     S
C3226  C3227   1.402   .     S
C3226  H3634   1.115   .     S
C3227  C3228   1.510   .     D
C3227  C4885   1.405   .     S
C3228  C3229   1.389   .     S
C3228  C4830   1.401   .     S
C3229  N3231   1.401   .     D
C3229  H3235   1.150   .     S
C3230  N3232   1.400   .     D
C3230  H3236   1.045   .     S
N3231  N4832   1.592   .     S
N3231  Co3697  1.857   .     S
N3232  Co3299  1.875   .     S
H3233  C4425   1.167   1_545 S
H3234  C4426   1.115   1_545 S
C3237  C3238   1.402   .     D
C3237  H3245   1.167   .     S
C3237  C4875   1.405   .     S
C3238  C3239   1.402   .     S
C3238  H3246   1.115   .     S
C3239  C3240   1.510   .     D
C3239  C4873   1.405   .     S
C3240  C3241   1.389   .     S
C3240  C4842   1.401   .     S
C3241  N3243   1.401   .     D
C3241  H3247   1.150   .     S
C3242  N3244   1.400   .     D
C3242  H3248   1.045   .     S
N3243  N4844   1.592   .     S
N3243  Co3398  1.857   .     S
N3244  Co3400  1.875   .     S
C3249  C3250   1.402   .     D
C3249  H4457   1.167   1_545 S
C3250  C3251   1.402   .     S
C3250  H4458   1.115   1_545 S
C3251  C3252   1.510   .     D
C3252  C3253   1.389   .     S
C3252  C3254   1.401   .     S
C3253  N3255   1.401   .     D
C3253  H3259   1.150   .     S
C3254  N3256   1.400   .     D
C3254  H3260   1.045   .     S
N3255  N3256   1.592   .     S
N3255  Co4499  1.857   1_545 S
N3256  Co3297  1.875   .     S
H3257  C3649   1.167   .     S
H3258  C3650   1.115   .     S
C3261  C3262   1.402   .     D
C3261  H3269   1.167   .     S
C3262  C3263   1.402   .     S
C3262  H3270   1.115   .     S
C3263  C3264   1.510   .     D
C3264  C3265   1.389   .     S
C3264  C3266   1.401   .     S
C3265  N3267   1.401   .     D
C3265  H3271   1.150   .     S
C3266  N3268   1.400   .     D
C3266  H3272   1.045   .     S
N3267  N3268   1.592   .     S
N3267  Co3400  1.857   .     S
N3268  Co3398  1.875   .     S
C3273  C3274   1.402   .     D
C3273  H4481   1.167   1_545 S
C3274  C3275   1.402   .     S
C3274  H4482   1.115   1_545 S
C3275  C3276   1.510   .     D
C3276  C3277   1.389   .     S
C3277  N3279   1.401   .     D
C3277  H3283   1.150   .     S
C3278  C4876   1.401   .     S
C3278  N3280   1.400   .     D
C3278  H3284   1.045   .     S
N3279  Co4499  1.857   1_545 S
N3280  N4879   1.592   .     S
N3280  Co3297  1.875   .     S
H3281  C3673   1.167   .     S
H3282  C3674   1.115   .     S
C3285  C3286   1.402   .     D
C3285  H3293   1.167   .     S
C3286  C3287   1.402   .     S
C3286  H3294   1.115   .     S
C3287  C3288   1.510   .     D
C3288  C3289   1.389   .     S
C3289  N3291   1.401   .     D
C3289  H3295   1.150   .     S
C3290  C4888   1.401   .     S
C3290  N3292   1.400   .     D
C3290  H3296   1.045   .     S
N3291  Co3300  1.857   .     S
N3292  N4891   1.592   .     S
N3292  Co3298  1.875   .     S
Co3297 N4407   1.857   1_545 S
Co3297 N4431   1.857   1_545 S
Co3298 N3543   1.857   1_455 S
Co3298 N3568   1.875   1_455 S
Co3299 N3655   1.857   .     S
Co3299 N3679   1.857   .     S
Co3300 N3567   1.857   1_455 S
Co3300 N3544   1.875   1_455 S
C3301  C3302   1.402   .     D
C3301  H3709   1.167   .     S
C3301  C3363   1.405   .     S
C3302  C3303   1.402   .     S
C3302  H3710   1.115   .     S
C3303  C3304   1.510   .     D
C3303  C3361   1.405   .     S
C3304  C3305   1.389   .     S
C3304  C3306   1.401   .     S
C3305  N3307   1.401   .     D
C3305  H3311   1.150   .     S
C3306  N3308   1.400   .     D
C3306  H3312   1.045   .     S
N3307  N3308   1.592   .     S
N3307  Co3797  1.857   .     S
N3308  Co3399  1.875   .     S
H3309  C4501   1.167   1_545 S
H3310  C4502   1.115   1_545 S
C3313  C3314   1.402   .     D
C3313  H3321   1.167   .     S
C3313  C3351   1.405   .     S
C3314  C3315   1.402   .     S
C3314  H3322   1.115   .     S
C3315  C3316   1.510   .     D
C3315  C3349   1.405   .     S
C3316  C3317   1.389   .     S
C3316  C3318   1.401   .     S
C3317  N3319   1.401   .     D
C3317  H3323   1.150   .     S
C3318  N3320   1.400   .     D
C3318  H3324   1.045   .     S
N3319  N3320   1.592   .     S
N3319  Co3398  1.857   .     S
N3320  Co3400  1.875   .     S
C3325  C3326   1.402   .     D
C3325  H3733   1.167   .     S
C3325  C4987   1.405   .     S
C3326  C3327   1.402   .     S
C3326  H3734   1.115   .     S
C3327  C3328   1.510   .     D
C3327  C4985   1.405   .     S
C3328  C3329   1.389   .     S
C3328  C4930   1.401   .     S
C3329  N3331   1.401   .     D
C3329  H3335   1.150   .     S
C3330  N3332   1.400   .     D
C3330  H3336   1.045   .     S
N3331  N4932   1.592   .     S
N3331  Co3797  1.857   .     S
N3332  Co3399  1.875   .     S
H3333  C4525   1.167   1_545 S
H3334  C4526   1.115   1_545 S
C3337  C3338   1.402   .     D
C3337  H3345   1.167   .     S
C3337  C4975   1.405   .     S
C3338  C3339   1.402   .     S
C3338  H3346   1.115   .     S
C3339  C3340   1.510   .     D
C3339  C4973   1.405   .     S
C3340  C3341   1.389   .     S
C3340  C4942   1.401   .     S
C3341  N3343   1.401   .     D
C3341  H3347   1.150   .     S
C3342  N3344   1.400   .     D
C3342  H3348   1.045   .     S
N3343  N4944   1.592   .     S
N3343  Co3498  1.857   .     S
N3344  Co3500  1.875   .     S
C3349  C3350   1.402   .     D
C3349  H4557   1.167   1_545 S
C3350  C3351   1.402   .     S
C3350  H4558   1.115   1_545 S
C3351  C3352   1.510   .     D
C3352  C3353   1.389   .     S
C3352  C3354   1.401   .     S
C3353  N3355   1.401   .     D
C3353  H3359   1.150   .     S
C3354  N3356   1.400   .     D
C3354  H3360   1.045   .     S
N3355  N3356   1.592   .     S
N3355  Co4599  1.857   1_545 S
N3356  Co3397  1.875   .     S
H3357  C3749   1.167   .     S
H3358  C3750   1.115   .     S
C3361  C3362   1.402   .     D
C3361  H3369   1.167   .     S
C3362  C3363   1.402   .     S
C3362  H3370   1.115   .     S
C3363  C3364   1.510   .     D
C3364  C3365   1.389   .     S
C3364  C3366   1.401   .     S
C3365  N3367   1.401   .     D
C3365  H3371   1.150   .     S
C3366  N3368   1.400   .     D
C3366  H3372   1.045   .     S
N3367  N3368   1.592   .     S
N3367  Co3500  1.857   .     S
N3368  Co3498  1.875   .     S
C3373  C3374   1.402   .     D
C3373  H4581   1.167   1_545 S
C3374  C3375   1.402   .     S
C3374  H4582   1.115   1_545 S
C3375  C3376   1.510   .     D
C3376  C3377   1.389   .     S
C3377  N3379   1.401   .     D
C3377  H3383   1.150   .     S
C3378  C4976   1.401   .     S
C3378  N3380   1.400   .     D
C3378  H3384   1.045   .     S
N3379  Co4599  1.857   1_545 S
N3380  N4979   1.592   .     S
N3380  Co3397  1.875   .     S
H3381  C3773   1.167   .     S
H3382  C3774   1.115   .     S
C3385  C3386   1.402   .     D
C3385  H3393   1.167   .     S
C3386  C3387   1.402   .     S
C3386  H3394   1.115   .     S
C3387  C3388   1.510   .     D
C3388  C3389   1.389   .     S
C3389  N3391   1.401   .     D
C3389  H3395   1.150   .     S
C3390  C4988   1.401   .     S
C3390  N3392   1.400   .     D
C3390  H3396   1.045   .     S
N3391  Co3400  1.857   .     S
N3392  N4991   1.592   .     S
N3392  Co3398  1.875   .     S
Co3397 N4507   1.857   1_545 S
Co3397 N4531   1.857   1_545 S
Co3399 N3755   1.857   .     S
Co3399 N3779   1.857   .     S
C3401  C3402   1.402   .     D
C3401  H3809   1.167   .     S
C3401  C3463   1.405   .     S
C3402  C3403   1.402   .     S
C3402  H3810   1.115   .     S
C3403  C3404   1.510   .     D
C3403  C3461   1.405   .     S
C3404  C3405   1.389   .     S
C3404  C3406   1.401   .     S
C3405  N3407   1.401   .     D
C3405  H3411   1.150   .     S
C3406  N3408   1.400   .     D
C3406  H3412   1.045   .     S
N3407  N3408   1.592   .     S
N3407  Co3897  1.857   .     S
N3408  Co3499  1.875   .     S
H3409  C4601   1.167   1_545 S
H3410  C4602   1.115   1_545 S
C3413  C3414   1.402   .     D
C3413  H3421   1.167   .     S
C3413  C3451   1.405   .     S
C3414  C3415   1.402   .     S
C3414  H3422   1.115   .     S
C3415  C3416   1.510   .     D
C3415  C3449   1.405   .     S
C3416  C3417   1.389   .     S
C3416  C3418   1.401   .     S
C3417  N3419   1.401   .     D
C3417  H3423   1.150   .     S
C3418  N3420   1.400   .     D
C3418  H3424   1.045   .     S
N3419  N3420   1.592   .     S
N3419  Co3498  1.857   .     S
N3420  Co3500  1.875   .     S
C3425  C3426   1.402   .     D
C3425  H3833   1.167   .     S
C3425  C5087   1.405   .     S
C3426  C3427   1.402   .     S
C3426  H3834   1.115   .     S
C3427  C3428   1.510   .     D
C3427  C5085   1.405   .     S
C3428  C3429   1.389   .     S
C3428  C5030   1.401   .     S
C3429  N3431   1.401   .     D
C3429  H3435   1.150   .     S
C3430  N3432   1.400   .     D
C3430  H3436   1.045   .     S
N3431  N5032   1.592   .     S
N3431  Co3897  1.857   .     S
N3432  Co3499  1.875   .     S
H3433  C4625   1.167   1_545 S
H3434  C4626   1.115   1_545 S
C3437  C3438   1.402   .     D
C3437  H3445   1.167   .     S
C3437  C5075   1.405   .     S
C3438  C3439   1.402   .     S
C3438  H3446   1.115   .     S
C3439  C3440   1.510   .     D
C3439  C5073   1.405   .     S
C3440  C3441   1.389   .     S
C3440  C5042   1.401   .     S
C3441  N3443   1.401   .     D
C3441  H3447   1.150   .     S
C3442  N3444   1.400   .     D
C3442  H3448   1.045   .     S
N3443  N5044   1.592   .     S
N3443  Co3598  1.857   .     S
N3444  Co3600  1.875   .     S
C3449  C3450   1.402   .     D
C3449  H4657   1.167   1_545 S
C3450  C3451   1.402   .     S
C3450  H4658   1.115   1_545 S
C3451  C3452   1.510   .     D
C3452  C3453   1.389   .     S
C3452  C3454   1.401   .     S
C3453  N3455   1.401   .     D
C3453  H3459   1.150   .     S
C3454  N3456   1.400   .     D
C3454  H3460   1.045   .     S
N3455  N3456   1.592   .     S
N3455  Co4699  1.857   1_545 S
N3456  Co3497  1.875   .     S
H3457  C3849   1.167   .     S
H3458  C3850   1.115   .     S
C3461  C3462   1.402   .     D
C3461  H3469   1.167   .     S
C3462  C3463   1.402   .     S
C3462  H3470   1.115   .     S
C3463  C3464   1.510   .     D
C3464  C3465   1.389   .     S
C3464  C3466   1.401   .     S
C3465  N3467   1.401   .     D
C3465  H3471   1.150   .     S
C3466  N3468   1.400   .     D
C3466  H3472   1.045   .     S
N3467  N3468   1.592   .     S
N3467  Co3600  1.857   .     S
N3468  Co3598  1.875   .     S
C3473  C3474   1.402   .     D
C3473  H4681   1.167   1_545 S
C3474  C3475   1.402   .     S
C3474  H4682   1.115   1_545 S
C3475  C3476   1.510   .     D
C3476  C3477   1.389   .     S
C3477  N3479   1.401   .     D
C3477  H3483   1.150   .     S
C3478  C5076   1.401   .     S
C3478  N3480   1.400   .     D
C3478  H3484   1.045   .     S
N3479  Co4699  1.857   1_545 S
N3480  N5079   1.592   .     S
N3480  Co3497  1.875   .     S
H3481  C3873   1.167   .     S
H3482  C3874   1.115   .     S
C3485  C3486   1.402   .     D
C3485  H3493   1.167   .     S
C3486  C3487   1.402   .     S
C3486  H3494   1.115   .     S
C3487  C3488   1.510   .     D
C3488  C3489   1.389   .     S
C3489  N3491   1.401   .     D
C3489  H3495   1.150   .     S
C3490  C5088   1.401   .     S
C3490  N3492   1.400   .     D
C3490  H3496   1.045   .     S
N3491  Co3500  1.857   .     S
N3492  N5091   1.592   .     S
N3492  Co3498  1.875   .     S
Co3497 N4607   1.857   1_545 S
Co3497 N4631   1.857   1_545 S
Co3499 N3855   1.857   .     S
Co3499 N3879   1.857   .     S
C3501  C3502   1.402   .     D
C3501  H3909   1.167   .     S
C3501  C3563   1.405   .     S
C3502  C3503   1.402   .     S
C3502  H3910   1.115   .     S
C3503  C3504   1.510   .     D
C3503  C3561   1.405   .     S
C3504  C3505   1.389   .     S
C3504  C3506   1.401   .     S
C3505  N3507   1.401   .     D
C3505  H3511   1.150   .     S
C3506  N3508   1.400   .     D
C3506  H3512   1.045   .     S
N3507  N3508   1.592   .     S
N3507  Co3997  1.857   .     S
N3508  Co3599  1.875   .     S
H3509  C4701   1.167   1_545 S
H3510  C4702   1.115   1_545 S
C3513  C3514   1.402   .     D
C3513  H3521   1.167   .     S
C3513  C3551   1.405   .     S
C3514  C3515   1.402   .     S
C3514  H3522   1.115   .     S
C3515  C3516   1.510   .     D
C3515  C3549   1.405   .     S
C3516  C3517   1.389   .     S
C3516  C3518   1.401   .     S
C3517  N3519   1.401   .     D
C3517  H3523   1.150   .     S
C3518  N3520   1.400   .     D
C3518  H3524   1.045   .     S
N3519  N3520   1.592   .     S
N3519  Co3598  1.857   .     S
N3520  Co3600  1.875   .     S
C3525  C3526   1.402   .     D
C3525  H3933   1.167   .     S
C3525  C5187   1.405   .     S
C3526  C3527   1.402   .     S
C3526  H3934   1.115   .     S
C3527  C3528   1.510   .     D
C3527  C5185   1.405   .     S
C3528  C3529   1.389   .     S
C3528  C5130   1.401   .     S
C3529  N3531   1.401   .     D
C3529  H3535   1.150   .     S
C3530  N3532   1.400   .     D
C3530  H3536   1.045   .     S
N3531  N5132   1.592   .     S
N3531  Co3997  1.857   .     S
N3532  Co3599  1.875   .     S
H3533  C4725   1.167   1_545 S
H3534  C4726   1.115   1_545 S
C3537  C3538   1.402   .     D
C3537  H3545   1.167   .     S
C3537  C5175   1.405   .     S
C3538  C3539   1.402   .     S
C3538  H3546   1.115   .     S
C3539  C3540   1.510   .     D
C3539  C5173   1.405   .     S
C3540  C3541   1.389   .     S
C3540  C5142   1.401   .     S
C3541  N3543   1.401   .     D
C3541  H3547   1.150   .     S
C3542  N3544   1.400   .     D
C3542  H3548   1.045   .     S
N3543  N5144   1.592   .     S
N3543  Co3298  1.857   1_655 S
N3544  Co3300  1.875   1_655 S
C3549  C3550   1.402   .     D
C3549  H4757   1.167   1_545 S
C3550  C3551   1.402   .     S
C3550  H4758   1.115   1_545 S
C3551  C3552   1.510   .     D
C3552  C3553   1.389   .     S
C3552  C3554   1.401   .     S
C3553  N3555   1.401   .     D
C3553  H3559   1.150   .     S
C3554  N3556   1.400   .     D
C3554  H3560   1.045   .     S
N3555  N3556   1.592   .     S
N3555  Co4799  1.857   1_545 S
N3556  Co3597  1.875   .     S
H3557  C3949   1.167   .     S
H3558  C3950   1.115   .     S
C3561  C3562   1.402   .     D
C3561  H3569   1.167   .     S
C3562  C3563   1.402   .     S
C3562  H3570   1.115   .     S
C3563  C3564   1.510   .     D
C3564  C3565   1.389   .     S
C3564  C3566   1.401   .     S
C3565  N3567   1.401   .     D
C3565  H3571   1.150   .     S
C3566  N3568   1.400   .     D
C3566  H3572   1.045   .     S
N3567  N3568   1.592   .     S
N3567  Co3300  1.857   1_655 S
N3568  Co3298  1.875   1_655 S
C3573  C3574   1.402   .     D
C3573  H4781   1.167   1_545 S
C3574  C3575   1.402   .     S
C3574  H4782   1.115   1_545 S
C3575  C3576   1.510   .     D
C3576  C3577   1.389   .     S
C3577  N3579   1.401   .     D
C3577  H3583   1.150   .     S
C3578  C5176   1.401   .     S
C3578  N3580   1.400   .     D
C3578  H3584   1.045   .     S
N3579  Co4799  1.857   1_545 S
N3580  N5179   1.592   .     S
N3580  Co3597  1.875   .     S
H3581  C3973   1.167   .     S
H3582  C3974   1.115   .     S
C3585  C3586   1.402   .     D
C3585  H3593   1.167   .     S
C3586  C3587   1.402   .     S
C3586  H3594   1.115   .     S
C3587  C3588   1.510   .     D
C3588  C3589   1.389   .     S
C3589  N3591   1.401   .     D
C3589  H3595   1.150   .     S
C3590  C5188   1.401   .     S
C3590  N3592   1.400   .     D
C3590  H3596   1.045   .     S
N3591  Co3600  1.857   .     S
N3592  N5191   1.592   .     S
N3592  Co3598  1.875   .     S
Co3597 N4707   1.857   1_545 S
Co3597 N4731   1.857   1_545 S
Co3599 N3955   1.857   .     S
Co3599 N3979   1.857   .     S
C3601  C3602   1.402   .     D
C3601  H4009   1.167   .     S
C3601  C3663   1.405   .     S
C3602  C3603   1.402   .     S
C3602  H4010   1.115   .     S
C3603  C3604   1.510   .     D
C3603  C3661   1.405   .     S
C3604  C3605   1.389   .     S
C3604  C3606   1.401   .     S
C3605  N3607   1.401   .     D
C3605  H3611   1.150   .     S
C3606  N3608   1.400   .     D
C3606  H3612   1.045   .     S
N3607  N3608   1.592   .     S
N3607  Co4097  1.857   .     S
N3608  Co3699  1.875   .     S
C3613  C3614   1.402   .     D
C3613  H3621   1.167   .     S
C3613  C3651   1.405   .     S
C3614  C3615   1.402   .     S
C3614  H3622   1.115   .     S
C3615  C3616   1.510   .     D
C3615  C3649   1.405   .     S
C3616  C3617   1.389   .     S
C3616  C3618   1.401   .     S
C3617  N3619   1.401   .     D
C3617  H3623   1.150   .     S
C3618  N3620   1.400   .     D
C3618  H3624   1.045   .     S
N3619  N3620   1.592   .     S
N3619  Co3698  1.857   .     S
N3620  Co3700  1.875   .     S
C3625  C3626   1.402   .     D
C3625  H4033   1.167   .     S
C3625  C5287   1.405   .     S
C3626  C3627   1.402   .     S
C3626  H4034   1.115   .     S
C3627  C3628   1.510   .     D
C3627  C5285   1.405   .     S
C3628  C3629   1.389   .     S
C3628  C5230   1.401   .     S
C3629  N3631   1.401   .     D
C3629  H3635   1.150   .     S
C3630  N3632   1.400   .     D
C3630  H3636   1.045   .     S
N3631  N5232   1.592   .     S
N3631  Co4097  1.857   .     S
N3632  Co3699  1.875   .     S
C3637  C3638   1.402   .     D
C3637  H3645   1.167   .     S
C3637  C5275   1.405   .     S
C3638  C3639   1.402   .     S
C3638  H3646   1.115   .     S
C3639  C3640   1.510   .     D
C3639  C5273   1.405   .     S
C3640  C3641   1.389   .     S
C3640  C5242   1.401   .     S
C3641  N3643   1.401   .     D
C3641  H3647   1.150   .     S
C3642  N3644   1.400   .     D
C3642  H3648   1.045   .     S
N3643  N5244   1.592   .     S
N3643  Co3798  1.857   .     S
N3644  Co3800  1.875   .     S
C3649  C3650   1.402   .     D
C3650  C3651   1.402   .     S
C3651  C3652   1.510   .     D
C3652  C3653   1.389   .     S
C3652  C3654   1.401   .     S
C3653  N3655   1.401   .     D
C3653  H3659   1.150   .     S
C3654  N3656   1.400   .     D
C3654  H3660   1.045   .     S
N3655  N3656   1.592   .     S
N3656  Co3697  1.875   .     S
H3657  C4049   1.167   .     S
H3658  C4050   1.115   .     S
C3661  C3662   1.402   .     D
C3661  H3669   1.167   .     S
C3662  C3663   1.402   .     S
C3662  H3670   1.115   .     S
C3663  C3664   1.510   .     D
C3664  C3665   1.389   .     S
C3664  C3666   1.401   .     S
C3665  N3667   1.401   .     D
C3665  H3671   1.150   .     S
C3666  N3668   1.400   .     D
C3666  H3672   1.045   .     S
N3667  N3668   1.592   .     S
N3667  Co3800  1.857   .     S
N3668  Co3798  1.875   .     S
C3673  C3674   1.402   .     D
C3674  C3675   1.402   .     S
C3675  C3676   1.510   .     D
C3676  C3677   1.389   .     S
C3677  N3679   1.401   .     D
C3677  H3683   1.150   .     S
C3678  C5276   1.401   .     S
C3678  N3680   1.400   .     D
C3678  H3684   1.045   .     S
N3680  N5279   1.592   .     S
N3680  Co3697  1.875   .     S
H3681  C4073   1.167   .     S
H3682  C4074   1.115   .     S
C3685  C3686   1.402   .     D
C3685  H3693   1.167   .     S
C3686  C3687   1.402   .     S
C3686  H3694   1.115   .     S
C3687  C3688   1.510   .     D
C3688  C3689   1.389   .     S
C3689  N3691   1.401   .     D
C3689  H3695   1.150   .     S
C3690  C5288   1.401   .     S
C3690  N3692   1.400   .     D
C3690  H3696   1.045   .     S
N3691  Co3700  1.857   .     S
N3692  N5291   1.592   .     S
N3692  Co3698  1.875   .     S
Co3698 N3943   1.857   1_455 S
Co3698 N3968   1.875   1_455 S
Co3699 N4055   1.857   .     S
Co3699 N4079   1.857   .     S
Co3700 N3967   1.857   1_455 S
Co3700 N3944   1.875   1_455 S
C3701  C3702   1.402   .     D
C3701  H4109   1.167   .     S
C3701  C3763   1.405   .     S
C3702  C3703   1.402   .     S
C3702  H4110   1.115   .     S
C3703  C3704   1.510   .     D
C3703  C3761   1.405   .     S
C3704  C3705   1.389   .     S
C3704  C3706   1.401   .     S
C3705  N3707   1.401   .     D
C3705  H3711   1.150   .     S
C3706  N3708   1.400   .     D
C3706  H3712   1.045   .     S
N3707  N3708   1.592   .     S
N3707  Co4197  1.857   .     S
N3708  Co3799  1.875   .     S
C3713  C3714   1.402   .     D
C3713  H3721   1.167   .     S
C3713  C3751   1.405   .     S
C3714  C3715   1.402   .     S
C3714  H3722   1.115   .     S
C3715  C3716   1.510   .     D
C3715  C3749   1.405   .     S
C3716  C3717   1.389   .     S
C3716  C3718   1.401   .     S
C3717  N3719   1.401   .     D
C3717  H3723   1.150   .     S
C3718  N3720   1.400   .     D
C3718  H3724   1.045   .     S
N3719  N3720   1.592   .     S
N3719  Co3798  1.857   .     S
N3720  Co3800  1.875   .     S
C3725  C3726   1.402   .     D
C3725  H4133   1.167   .     S
C3725  C5387   1.405   .     S
C3726  C3727   1.402   .     S
C3726  H4134   1.115   .     S
C3727  C3728   1.510   .     D
C3727  C5385   1.405   .     S
C3728  C3729   1.389   .     S
C3728  C5330   1.401   .     S
C3729  N3731   1.401   .     D
C3729  H3735   1.150   .     S
C3730  N3732   1.400   .     D
C3730  H3736   1.045   .     S
N3731  N5332   1.592   .     S
N3731  Co4197  1.857   .     S
N3732  Co3799  1.875   .     S
C3737  C3738   1.402   .     D
C3737  H3745   1.167   .     S
C3737  C5375   1.405   .     S
C3738  C3739   1.402   .     S
C3738  H3746   1.115   .     S
C3739  C3740   1.510   .     D
C3739  C5373   1.405   .     S
C3740  C3741   1.389   .     S
C3740  C5342   1.401   .     S
C3741  N3743   1.401   .     D
C3741  H3747   1.150   .     S
C3742  N3744   1.400   .     D
C3742  H3748   1.045   .     S
N3743  N5344   1.592   .     S
N3743  Co3898  1.857   .     S
N3744  Co3900  1.875   .     S
C3749  C3750   1.402   .     D
C3750  C3751   1.402   .     S
C3751  C3752   1.510   .     D
C3752  C3753   1.389   .     S
C3752  C3754   1.401   .     S
C3753  N3755   1.401   .     D
C3753  H3759   1.150   .     S
C3754  N3756   1.400   .     D
C3754  H3760   1.045   .     S
N3755  N3756   1.592   .     S
N3756  Co3797  1.875   .     S
H3757  C4149   1.167   .     S
H3758  C4150   1.115   .     S
C3761  C3762   1.402   .     D
C3761  H3769   1.167   .     S
C3762  C3763   1.402   .     S
C3762  H3770   1.115   .     S
C3763  C3764   1.510   .     D
C3764  C3765   1.389   .     S
C3764  C3766   1.401   .     S
C3765  N3767   1.401   .     D
C3765  H3771   1.150   .     S
C3766  N3768   1.400   .     D
C3766  H3772   1.045   .     S
N3767  N3768   1.592   .     S
N3767  Co3900  1.857   .     S
N3768  Co3898  1.875   .     S
C3773  C3774   1.402   .     D
C3774  C3775   1.402   .     S
C3775  C3776   1.510   .     D
C3776  C3777   1.389   .     S
C3777  N3779   1.401   .     D
C3777  H3783   1.150   .     S
C3778  C5376   1.401   .     S
C3778  N3780   1.400   .     D
C3778  H3784   1.045   .     S
N3780  N5379   1.592   .     S
N3780  Co3797  1.875   .     S
H3781  C4173   1.167   .     S
H3782  C4174   1.115   .     S
C3785  C3786   1.402   .     D
C3785  H3793   1.167   .     S
C3786  C3787   1.402   .     S
C3786  H3794   1.115   .     S
C3787  C3788   1.510   .     D
C3788  C3789   1.389   .     S
C3789  N3791   1.401   .     D
C3789  H3795   1.150   .     S
C3790  C5388   1.401   .     S
C3790  N3792   1.400   .     D
C3790  H3796   1.045   .     S
N3791  Co3800  1.857   .     S
N3792  N5391   1.592   .     S
N3792  Co3798  1.875   .     S
Co3799 N4155   1.857   .     S
Co3799 N4179   1.857   .     S
C3801  C3802   1.402   .     D
C3801  H4209   1.167   .     S
C3801  C3863   1.405   .     S
C3802  C3803   1.402   .     S
C3802  H4210   1.115   .     S
C3803  C3804   1.510   .     D
C3803  C3861   1.405   .     S
C3804  C3805   1.389   .     S
C3804  C3806   1.401   .     S
C3805  N3807   1.401   .     D
C3805  H3811   1.150   .     S
C3806  N3808   1.400   .     D
C3806  H3812   1.045   .     S
N3807  N3808   1.592   .     S
N3807  Co4297  1.857   .     S
N3808  Co3899  1.875   .     S
C3813  C3814   1.402   .     D
C3813  H3821   1.167   .     S
C3813  C3851   1.405   .     S
C3814  C3815   1.402   .     S
C3814  H3822   1.115   .     S
C3815  C3816   1.510   .     D
C3815  C3849   1.405   .     S
C3816  C3817   1.389   .     S
C3816  C3818   1.401   .     S
C3817  N3819   1.401   .     D
C3817  H3823   1.150   .     S
C3818  N3820   1.400   .     D
C3818  H3824   1.045   .     S
N3819  N3820   1.592   .     S
N3819  Co3898  1.857   .     S
N3820  Co3900  1.875   .     S
C3825  C3826   1.402   .     D
C3825  H4233   1.167   .     S
C3825  C5487   1.405   .     S
C3826  C3827   1.402   .     S
C3826  H4234   1.115   .     S
C3827  C3828   1.510   .     D
C3827  C5485   1.405   .     S
C3828  C3829   1.389   .     S
C3828  C5430   1.401   .     S
C3829  N3831   1.401   .     D
C3829  H3835   1.150   .     S
C3830  N3832   1.400   .     D
C3830  H3836   1.045   .     S
N3831  N5432   1.592   .     S
N3831  Co4297  1.857   .     S
N3832  Co3899  1.875   .     S
C3837  C3838   1.402   .     D
C3837  H3845   1.167   .     S
C3837  C5475   1.405   .     S
C3838  C3839   1.402   .     S
C3838  H3846   1.115   .     S
C3839  C3840   1.510   .     D
C3839  C5473   1.405   .     S
C3840  C3841   1.389   .     S
C3840  C5442   1.401   .     S
C3841  N3843   1.401   .     D
C3841  H3847   1.150   .     S
C3842  N3844   1.400   .     D
C3842  H3848   1.045   .     S
N3843  N5444   1.592   .     S
N3843  Co3998  1.857   .     S
N3844  Co4000  1.875   .     S
C3849  C3850   1.402   .     D
C3850  C3851   1.402   .     S
C3851  C3852   1.510   .     D
C3852  C3853   1.389   .     S
C3852  C3854   1.401   .     S
C3853  N3855   1.401   .     D
C3853  H3859   1.150   .     S
C3854  N3856   1.400   .     D
C3854  H3860   1.045   .     S
N3855  N3856   1.592   .     S
N3856  Co3897  1.875   .     S
H3857  C4249   1.167   .     S
H3858  C4250   1.115   .     S
C3861  C3862   1.402   .     D
C3861  H3869   1.167   .     S
C3862  C3863   1.402   .     S
C3862  H3870   1.115   .     S
C3863  C3864   1.510   .     D
C3864  C3865   1.389   .     S
C3864  C3866   1.401   .     S
C3865  N3867   1.401   .     D
C3865  H3871   1.150   .     S
C3866  N3868   1.400   .     D
C3866  H3872   1.045   .     S
N3867  N3868   1.592   .     S
N3867  Co4000  1.857   .     S
N3868  Co3998  1.875   .     S
C3873  C3874   1.402   .     D
C3874  C3875   1.402   .     S
C3875  C3876   1.510   .     D
C3876  C3877   1.389   .     S
C3877  N3879   1.401   .     D
C3877  H3883   1.150   .     S
C3878  C5476   1.401   .     S
C3878  N3880   1.400   .     D
C3878  H3884   1.045   .     S
N3880  N5479   1.592   .     S
N3880  Co3897  1.875   .     S
H3881  C4273   1.167   .     S
H3882  C4274   1.115   .     S
C3885  C3886   1.402   .     D
C3885  H3893   1.167   .     S
C3886  C3887   1.402   .     S
C3886  H3894   1.115   .     S
C3887  C3888   1.510   .     D
C3888  C3889   1.389   .     S
C3889  N3891   1.401   .     D
C3889  H3895   1.150   .     S
C3890  C5488   1.401   .     S
C3890  N3892   1.400   .     D
C3890  H3896   1.045   .     S
N3891  Co3900  1.857   .     S
N3892  N5491   1.592   .     S
N3892  Co3898  1.875   .     S
Co3899 N4255   1.857   .     S
Co3899 N4279   1.857   .     S
C3901  C3902   1.402   .     D
C3901  H4309   1.167   .     S
C3901  C3963   1.405   .     S
C3902  C3903   1.402   .     S
C3902  H4310   1.115   .     S
C3903  C3904   1.510   .     D
C3903  C3961   1.405   .     S
C3904  C3905   1.389   .     S
C3904  C3906   1.401   .     S
C3905  N3907   1.401   .     D
C3905  H3911   1.150   .     S
C3906  N3908   1.400   .     D
C3906  H3912   1.045   .     S
N3907  N3908   1.592   .     S
N3907  Co4397  1.857   .     S
N3908  Co3999  1.875   .     S
C3913  C3914   1.402   .     D
C3913  H3921   1.167   .     S
C3913  C3951   1.405   .     S
C3914  C3915   1.402   .     S
C3914  H3922   1.115   .     S
C3915  C3916   1.510   .     D
C3915  C3949   1.405   .     S
C3916  C3917   1.389   .     S
C3916  C3918   1.401   .     S
C3917  N3919   1.401   .     D
C3917  H3923   1.150   .     S
C3918  N3920   1.400   .     D
C3918  H3924   1.045   .     S
N3919  N3920   1.592   .     S
N3919  Co3998  1.857   .     S
N3920  Co4000  1.875   .     S
C3925  C3926   1.402   .     D
C3925  H4333   1.167   .     S
C3925  C5587   1.405   .     S
C3926  C3927   1.402   .     S
C3926  H4334   1.115   .     S
C3927  C3928   1.510   .     D
C3927  C5585   1.405   .     S
C3928  C3929   1.389   .     S
C3928  C5530   1.401   .     S
C3929  N3931   1.401   .     D
C3929  H3935   1.150   .     S
C3930  N3932   1.400   .     D
C3930  H3936   1.045   .     S
N3931  N5532   1.592   .     S
N3931  Co4397  1.857   .     S
N3932  Co3999  1.875   .     S
C3937  C3938   1.402   .     D
C3937  H3945   1.167   .     S
C3937  C5575   1.405   .     S
C3938  C3939   1.402   .     S
C3938  H3946   1.115   .     S
C3939  C3940   1.510   .     D
C3939  C5573   1.405   .     S
C3940  C3941   1.389   .     S
C3940  C5542   1.401   .     S
C3941  N3943   1.401   .     D
C3941  H3947   1.150   .     S
C3942  N3944   1.400   .     D
C3942  H3948   1.045   .     S
N3943  N5544   1.592   .     S
N3943  Co3698  1.857   1_655 S
N3944  Co3700  1.875   1_655 S
C3949  C3950   1.402   .     D
C3950  C3951   1.402   .     S
C3951  C3952   1.510   .     D
C3952  C3953   1.389   .     S
C3952  C3954   1.401   .     S
C3953  N3955   1.401   .     D
C3953  H3959   1.150   .     S
C3954  N3956   1.400   .     D
C3954  H3960   1.045   .     S
N3955  N3956   1.592   .     S
N3956  Co3997  1.875   .     S
H3957  C4349   1.167   .     S
H3958  C4350   1.115   .     S
C3961  C3962   1.402   .     D
C3961  H3969   1.167   .     S
C3962  C3963   1.402   .     S
C3962  H3970   1.115   .     S
C3963  C3964   1.510   .     D
C3964  C3965   1.389   .     S
C3964  C3966   1.401   .     S
C3965  N3967   1.401   .     D
C3965  H3971   1.150   .     S
C3966  N3968   1.400   .     D
C3966  H3972   1.045   .     S
N3967  N3968   1.592   .     S
N3967  Co3700  1.857   1_655 S
N3968  Co3698  1.875   1_655 S
C3973  C3974   1.402   .     D
C3974  C3975   1.402   .     S
C3975  C3976   1.510   .     D
C3976  C3977   1.389   .     S
C3977  N3979   1.401   .     D
C3977  H3983   1.150   .     S
C3978  C5576   1.401   .     S
C3978  N3980   1.400   .     D
C3978  H3984   1.045   .     S
N3980  N5579   1.592   .     S
N3980  Co3997  1.875   .     S
H3981  C4373   1.167   .     S
H3982  C4374   1.115   .     S
C3985  C3986   1.402   .     D
C3985  H3993   1.167   .     S
C3986  C3987   1.402   .     S
C3986  H3994   1.115   .     S
C3987  C3988   1.510   .     D
C3988  C3989   1.389   .     S
C3989  N3991   1.401   .     D
C3989  H3995   1.150   .     S
C3990  C5588   1.401   .     S
C3990  N3992   1.400   .     D
C3990  H3996   1.045   .     S
N3991  Co4000  1.857   .     S
N3992  N5591   1.592   .     S
N3992  Co3998  1.875   .     S
Co3999 N4355   1.857   .     S
Co3999 N4379   1.857   .     S
C4001  C4002   1.402   .     D
C4001  H4409   1.167   .     S
C4001  C4063   1.405   .     S
C4002  C4003   1.402   .     S
C4002  H4410   1.115   .     S
C4003  C4004   1.510   .     D
C4003  C4061   1.405   .     S
C4004  C4005   1.389   .     S
C4004  C4006   1.401   .     S
C4005  N4007   1.401   .     D
C4005  H4011   1.150   .     S
C4006  N4008   1.400   .     D
C4006  H4012   1.045   .     S
N4007  N4008   1.592   .     S
N4007  Co4497  1.857   .     S
N4008  Co4099  1.875   .     S
C4013  C4014   1.402   .     D
C4013  H4021   1.167   .     S
C4013  C4051   1.405   .     S
C4014  C4015   1.402   .     S
C4014  H4022   1.115   .     S
C4015  C4016   1.510   .     D
C4015  C4049   1.405   .     S
C4016  C4017   1.389   .     S
C4016  C4018   1.401   .     S
C4017  N4019   1.401   .     D
C4017  H4023   1.150   .     S
C4018  N4020   1.400   .     D
C4018  H4024   1.045   .     S
N4019  N4020   1.592   .     S
N4019  Co4098  1.857   .     S
N4020  Co4100  1.875   .     S
C4025  C4026   1.402   .     D
C4025  H4433   1.167   .     S
C4025  C5687   1.405   .     S
C4026  C4027   1.402   .     S
C4026  H4434   1.115   .     S
C4027  C4028   1.510   .     D
C4027  C5685   1.405   .     S
C4028  C4029   1.389   .     S
C4028  C5630   1.401   .     S
C4029  N4031   1.401   .     D
C4029  H4035   1.150   .     S
C4030  N4032   1.400   .     D
C4030  H4036   1.045   .     S
N4031  N5632   1.592   .     S
N4031  Co4497  1.857   .     S
N4032  Co4099  1.875   .     S
C4037  C4038   1.402   .     D
C4037  H4045   1.167   .     S
C4037  C5675   1.405   .     S
C4038  C4039   1.402   .     S
C4038  H4046   1.115   .     S
C4039  C4040   1.510   .     D
C4039  C5673   1.405   .     S
C4040  C4041   1.389   .     S
C4040  C5642   1.401   .     S
C4041  N4043   1.401   .     D
C4041  H4047   1.150   .     S
C4042  N4044   1.400   .     D
C4042  H4048   1.045   .     S
N4043  N5644   1.592   .     S
N4043  Co4198  1.857   .     S
N4044  Co4200  1.875   .     S
C4049  C4050   1.402   .     D
C4050  C4051   1.402   .     S
C4051  C4052   1.510   .     D
C4052  C4053   1.389   .     S
C4052  C4054   1.401   .     S
C4053  N4055   1.401   .     D
C4053  H4059   1.150   .     S
C4054  N4056   1.400   .     D
C4054  H4060   1.045   .     S
N4055  N4056   1.592   .     S
N4056  Co4097  1.875   .     S
H4057  C4449   1.167   .     S
H4058  C4450   1.115   .     S
C4061  C4062   1.402   .     D
C4061  H4069   1.167   .     S
C4062  C4063   1.402   .     S
C4062  H4070   1.115   .     S
C4063  C4064   1.510   .     D
C4064  C4065   1.389   .     S
C4064  C4066   1.401   .     S
C4065  N4067   1.401   .     D
C4065  H4071   1.150   .     S
C4066  N4068   1.400   .     D
C4066  H4072   1.045   .     S
N4067  N4068   1.592   .     S
N4067  Co4200  1.857   .     S
N4068  Co4198  1.875   .     S
C4073  C4074   1.402   .     D
C4074  C4075   1.402   .     S
C4075  C4076   1.510   .     D
C4076  C4077   1.389   .     S
C4077  N4079   1.401   .     D
C4077  H4083   1.150   .     S
C4078  C5676   1.401   .     S
C4078  N4080   1.400   .     D
C4078  H4084   1.045   .     S
N4080  N5679   1.592   .     S
N4080  Co4097  1.875   .     S
H4081  C4473   1.167   .     S
H4082  C4474   1.115   .     S
C4085  C4086   1.402   .     D
C4085  H4093   1.167   .     S
C4086  C4087   1.402   .     S
C4086  H4094   1.115   .     S
C4087  C4088   1.510   .     D
C4088  C4089   1.389   .     S
C4089  N4091   1.401   .     D
C4089  H4095   1.150   .     S
C4090  C5688   1.401   .     S
C4090  N4092   1.400   .     D
C4090  H4096   1.045   .     S
N4091  Co4100  1.857   .     S
N4092  N5691   1.592   .     S
N4092  Co4098  1.875   .     S
Co4098 N4343   1.857   1_455 S
Co4098 N4368   1.875   1_455 S
Co4099 N4455   1.857   .     S
Co4099 N4479   1.857   .     S
Co4100 N4367   1.857   1_455 S
Co4100 N4344   1.875   1_455 S
C4101  C4102   1.402   .     D
C4101  H4509   1.167   .     S
C4101  C4163   1.405   .     S
C4102  C4103   1.402   .     S
C4102  H4510   1.115   .     S
C4103  C4104   1.510   .     D
C4103  C4161   1.405   .     S
C4104  C4105   1.389   .     S
C4104  C4106   1.401   .     S
C4105  N4107   1.401   .     D
C4105  H4111   1.150   .     S
C4106  N4108   1.400   .     D
C4106  H4112   1.045   .     S
N4107  N4108   1.592   .     S
N4107  Co4597  1.857   .     S
N4108  Co4199  1.875   .     S
C4113  C4114   1.402   .     D
C4113  H4121   1.167   .     S
C4113  C4151   1.405   .     S
C4114  C4115   1.402   .     S
C4114  H4122   1.115   .     S
C4115  C4116   1.510   .     D
C4115  C4149   1.405   .     S
C4116  C4117   1.389   .     S
C4116  C4118   1.401   .     S
C4117  N4119   1.401   .     D
C4117  H4123   1.150   .     S
C4118  N4120   1.400   .     D
C4118  H4124   1.045   .     S
N4119  N4120   1.592   .     S
N4119  Co4198  1.857   .     S
N4120  Co4200  1.875   .     S
C4125  C4126   1.402   .     D
C4125  H4533   1.167   .     S
C4125  C5787   1.405   .     S
C4126  C4127   1.402   .     S
C4126  H4534   1.115   .     S
C4127  C4128   1.510   .     D
C4127  C5785   1.405   .     S
C4128  C4129   1.389   .     S
C4128  C5730   1.401   .     S
C4129  N4131   1.401   .     D
C4129  H4135   1.150   .     S
C4130  N4132   1.400   .     D
C4130  H4136   1.045   .     S
N4131  N5732   1.592   .     S
N4131  Co4597  1.857   .     S
N4132  Co4199  1.875   .     S
C4137  C4138   1.402   .     D
C4137  H4145   1.167   .     S
C4137  C5775   1.405   .     S
C4138  C4139   1.402   .     S
C4138  H4146   1.115   .     S
C4139  C4140   1.510   .     D
C4139  C5773   1.405   .     S
C4140  C4141   1.389   .     S
C4140  C5742   1.401   .     S
C4141  N4143   1.401   .     D
C4141  H4147   1.150   .     S
C4142  N4144   1.400   .     D
C4142  H4148   1.045   .     S
N4143  N5744   1.592   .     S
N4143  Co4298  1.857   .     S
N4144  Co4300  1.875   .     S
C4149  C4150   1.402   .     D
C4150  C4151   1.402   .     S
C4151  C4152   1.510   .     D
C4152  C4153   1.389   .     S
C4152  C4154   1.401   .     S
C4153  N4155   1.401   .     D
C4153  H4159   1.150   .     S
C4154  N4156   1.400   .     D
C4154  H4160   1.045   .     S
N4155  N4156   1.592   .     S
N4156  Co4197  1.875   .     S
H4157  C4549   1.167   .     S
H4158  C4550   1.115   .     S
C4161  C4162   1.402   .     D
C4161  H4169   1.167   .     S
C4162  C4163   1.402   .     S
C4162  H4170   1.115   .     S
C4163  C4164   1.510   .     D
C4164  C4165   1.389   .     S
C4164  C4166   1.401   .     S
C4165  N4167   1.401   .     D
C4165  H4171   1.150   .     S
C4166  N4168   1.400   .     D
C4166  H4172   1.045   .     S
N4167  N4168   1.592   .     S
N4167  Co4300  1.857   .     S
N4168  Co4298  1.875   .     S
C4173  C4174   1.402   .     D
C4174  C4175   1.402   .     S
C4175  C4176   1.510   .     D
C4176  C4177   1.389   .     S
C4177  N4179   1.401   .     D
C4177  H4183   1.150   .     S
C4178  C5776   1.401   .     S
C4178  N4180   1.400   .     D
C4178  H4184   1.045   .     S
N4180  N5779   1.592   .     S
N4180  Co4197  1.875   .     S
H4181  C4573   1.167   .     S
H4182  C4574   1.115   .     S
C4185  C4186   1.402   .     D
C4185  H4193   1.167   .     S
C4186  C4187   1.402   .     S
C4186  H4194   1.115   .     S
C4187  C4188   1.510   .     D
C4188  C4189   1.389   .     S
C4189  N4191   1.401   .     D
C4189  H4195   1.150   .     S
C4190  C5788   1.401   .     S
C4190  N4192   1.400   .     D
C4190  H4196   1.045   .     S
N4191  Co4200  1.857   .     S
N4192  N5791   1.592   .     S
N4192  Co4198  1.875   .     S
Co4199 N4555   1.857   .     S
Co4199 N4579   1.857   .     S
C4201  C4202   1.402   .     D
C4201  H4609   1.167   .     S
C4201  C4263   1.405   .     S
C4202  C4203   1.402   .     S
C4202  H4610   1.115   .     S
C4203  C4204   1.510   .     D
C4203  C4261   1.405   .     S
C4204  C4205   1.389   .     S
C4204  C4206   1.401   .     S
C4205  N4207   1.401   .     D
C4205  H4211   1.150   .     S
C4206  N4208   1.400   .     D
C4206  H4212   1.045   .     S
N4207  N4208   1.592   .     S
N4207  Co4697  1.857   .     S
N4208  Co4299  1.875   .     S
C4213  C4214   1.402   .     D
C4213  H4221   1.167   .     S
C4213  C4251   1.405   .     S
C4214  C4215   1.402   .     S
C4214  H4222   1.115   .     S
C4215  C4216   1.510   .     D
C4215  C4249   1.405   .     S
C4216  C4217   1.389   .     S
C4216  C4218   1.401   .     S
C4217  N4219   1.401   .     D
C4217  H4223   1.150   .     S
C4218  N4220   1.400   .     D
C4218  H4224   1.045   .     S
N4219  N4220   1.592   .     S
N4219  Co4298  1.857   .     S
N4220  Co4300  1.875   .     S
C4225  C4226   1.402   .     D
C4225  H4633   1.167   .     S
C4225  C5887   1.405   .     S
C4226  C4227   1.402   .     S
C4226  H4634   1.115   .     S
C4227  C4228   1.510   .     D
C4227  C5885   1.405   .     S
C4228  C4229   1.389   .     S
C4228  C5830   1.401   .     S
C4229  N4231   1.401   .     D
C4229  H4235   1.150   .     S
C4230  N4232   1.400   .     D
C4230  H4236   1.045   .     S
N4231  N5832   1.592   .     S
N4231  Co4697  1.857   .     S
N4232  Co4299  1.875   .     S
C4237  C4238   1.402   .     D
C4237  H4245   1.167   .     S
C4237  C5875   1.405   .     S
C4238  C4239   1.402   .     S
C4238  H4246   1.115   .     S
C4239  C4240   1.510   .     D
C4239  C5873   1.405   .     S
C4240  C4241   1.389   .     S
C4240  C5842   1.401   .     S
C4241  N4243   1.401   .     D
C4241  H4247   1.150   .     S
C4242  N4244   1.400   .     D
C4242  H4248   1.045   .     S
N4243  N5844   1.592   .     S
N4243  Co4398  1.857   .     S
N4244  Co4400  1.875   .     S
C4249  C4250   1.402   .     D
C4250  C4251   1.402   .     S
C4251  C4252   1.510   .     D
C4252  C4253   1.389   .     S
C4252  C4254   1.401   .     S
C4253  N4255   1.401   .     D
C4253  H4259   1.150   .     S
C4254  N4256   1.400   .     D
C4254  H4260   1.045   .     S
N4255  N4256   1.592   .     S
N4256  Co4297  1.875   .     S
H4257  C4649   1.167   .     S
H4258  C4650   1.115   .     S
C4261  C4262   1.402   .     D
C4261  H4269   1.167   .     S
C4262  C4263   1.402   .     S
C4262  H4270   1.115   .     S
C4263  C4264   1.510   .     D
C4264  C4265   1.389   .     S
C4264  C4266   1.401   .     S
C4265  N4267   1.401   .     D
C4265  H4271   1.150   .     S
C4266  N4268   1.400   .     D
C4266  H4272   1.045   .     S
N4267  N4268   1.592   .     S
N4267  Co4400  1.857   .     S
N4268  Co4398  1.875   .     S
C4273  C4274   1.402   .     D
C4274  C4275   1.402   .     S
C4275  C4276   1.510   .     D
C4276  C4277   1.389   .     S
C4277  N4279   1.401   .     D
C4277  H4283   1.150   .     S
C4278  C5876   1.401   .     S
C4278  N4280   1.400   .     D
C4278  H4284   1.045   .     S
N4280  N5879   1.592   .     S
N4280  Co4297  1.875   .     S
H4281  C4673   1.167   .     S
H4282  C4674   1.115   .     S
C4285  C4286   1.402   .     D
C4285  H4293   1.167   .     S
C4286  C4287   1.402   .     S
C4286  H4294   1.115   .     S
C4287  C4288   1.510   .     D
C4288  C4289   1.389   .     S
C4289  N4291   1.401   .     D
C4289  H4295   1.150   .     S
C4290  C5888   1.401   .     S
C4290  N4292   1.400   .     D
C4290  H4296   1.045   .     S
N4291  Co4300  1.857   .     S
N4292  N5891   1.592   .     S
N4292  Co4298  1.875   .     S
Co4299 N4655   1.857   .     S
Co4299 N4679   1.857   .     S
C4301  C4302   1.402   .     D
C4301  H4709   1.167   .     S
C4301  C4363   1.405   .     S
C4302  C4303   1.402   .     S
C4302  H4710   1.115   .     S
C4303  C4304   1.510   .     D
C4303  C4361   1.405   .     S
C4304  C4305   1.389   .     S
C4304  C4306   1.401   .     S
C4305  N4307   1.401   .     D
C4305  H4311   1.150   .     S
C4306  N4308   1.400   .     D
C4306  H4312   1.045   .     S
N4307  N4308   1.592   .     S
N4307  Co4797  1.857   .     S
N4308  Co4399  1.875   .     S
C4313  C4314   1.402   .     D
C4313  H4321   1.167   .     S
C4313  C4351   1.405   .     S
C4314  C4315   1.402   .     S
C4314  H4322   1.115   .     S
C4315  C4316   1.510   .     D
C4315  C4349   1.405   .     S
C4316  C4317   1.389   .     S
C4316  C4318   1.401   .     S
C4317  N4319   1.401   .     D
C4317  H4323   1.150   .     S
C4318  N4320   1.400   .     D
C4318  H4324   1.045   .     S
N4319  N4320   1.592   .     S
N4319  Co4398  1.857   .     S
N4320  Co4400  1.875   .     S
C4325  C4326   1.402   .     D
C4325  H4733   1.167   .     S
C4325  C5987   1.405   .     S
C4326  C4327   1.402   .     S
C4326  H4734   1.115   .     S
C4327  C4328   1.510   .     D
C4327  C5985   1.405   .     S
C4328  C4329   1.389   .     S
C4328  C5930   1.401   .     S
C4329  N4331   1.401   .     D
C4329  H4335   1.150   .     S
C4330  N4332   1.400   .     D
C4330  H4336   1.045   .     S
N4331  N5932   1.592   .     S
N4331  Co4797  1.857   .     S
N4332  Co4399  1.875   .     S
C4337  C4338   1.402   .     D
C4337  H4345   1.167   .     S
C4337  C5975   1.405   .     S
C4338  C4339   1.402   .     S
C4338  H4346   1.115   .     S
C4339  C4340   1.510   .     D
C4339  C5973   1.405   .     S
C4340  C4341   1.389   .     S
C4340  C5942   1.401   .     S
C4341  N4343   1.401   .     D
C4341  H4347   1.150   .     S
C4342  N4344   1.400   .     D
C4342  H4348   1.045   .     S
N4343  N5944   1.592   .     S
N4343  Co4098  1.857   1_655 S
N4344  Co4100  1.875   1_655 S
C4349  C4350   1.402   .     D
C4350  C4351   1.402   .     S
C4351  C4352   1.510   .     D
C4352  C4353   1.389   .     S
C4352  C4354   1.401   .     S
C4353  N4355   1.401   .     D
C4353  H4359   1.150   .     S
C4354  N4356   1.400   .     D
C4354  H4360   1.045   .     S
N4355  N4356   1.592   .     S
N4356  Co4397  1.875   .     S
H4357  C4749   1.167   .     S
H4358  C4750   1.115   .     S
C4361  C4362   1.402   .     D
C4361  H4369   1.167   .     S
C4362  C4363   1.402   .     S
C4362  H4370   1.115   .     S
C4363  C4364   1.510   .     D
C4364  C4365   1.389   .     S
C4364  C4366   1.401   .     S
C4365  N4367   1.401   .     D
C4365  H4371   1.150   .     S
C4366  N4368   1.400   .     D
C4366  H4372   1.045   .     S
N4367  N4368   1.592   .     S
N4367  Co4100  1.857   1_655 S
N4368  Co4098  1.875   1_655 S
C4373  C4374   1.402   .     D
C4374  C4375   1.402   .     S
C4375  C4376   1.510   .     D
C4376  C4377   1.389   .     S
C4377  N4379   1.401   .     D
C4377  H4383   1.150   .     S
C4378  C5976   1.401   .     S
C4378  N4380   1.400   .     D
C4378  H4384   1.045   .     S
N4380  N5979   1.592   .     S
N4380  Co4397  1.875   .     S
H4381  C4773   1.167   .     S
H4382  C4774   1.115   .     S
C4385  C4386   1.402   .     D
C4385  H4393   1.167   .     S
C4386  C4387   1.402   .     S
C4386  H4394   1.115   .     S
C4387  C4388   1.510   .     D
C4388  C4389   1.389   .     S
C4389  N4391   1.401   .     D
C4389  H4395   1.150   .     S
C4390  C5988   1.401   .     S
C4390  N4392   1.400   .     D
C4390  H4396   1.045   .     S
N4391  Co4400  1.857   .     S
N4392  N5991   1.592   .     S
N4392  Co4398  1.875   .     S
Co4399 N4755   1.857   .     S
Co4399 N4779   1.857   .     S
C4401  C4402   1.402   .     D
C4401  H3209   1.167   1_565 S
C4401  C4463   1.405   .     S
C4402  C4403   1.402   .     S
C4402  H3210   1.115   1_565 S
C4403  C4404   1.510   .     D
C4403  C4461   1.405   .     S
C4404  C4405   1.389   .     S
C4404  C4406   1.401   .     S
C4405  N4407   1.401   .     D
C4405  H4411   1.150   .     S
C4406  N4408   1.400   .     D
C4406  H4412   1.045   .     S
N4407  N4408   1.592   .     S
N4407  Co3297  1.857   1_565 S
N4408  Co4499  1.875   .     S
C4413  C4414   1.402   .     D
C4413  H4421   1.167   .     S
C4413  C4451   1.405   .     S
C4414  C4415   1.402   .     S
C4414  H4422   1.115   .     S
C4415  C4416   1.510   .     D
C4415  C4449   1.405   .     S
C4416  C4417   1.389   .     S
C4416  C4418   1.401   .     S
C4417  N4419   1.401   .     D
C4417  H4423   1.150   .     S
C4418  N4420   1.400   .     D
C4418  H4424   1.045   .     S
N4419  N4420   1.592   .     S
N4419  Co4498  1.857   .     S
N4420  Co4500  1.875   .     S
C4425  C4426   1.402   .     D
C4425  H3233   1.167   1_565 S
C4425  C6087   1.405   .     S
C4426  C4427   1.402   .     S
C4426  H3234   1.115   1_565 S
C4427  C4428   1.510   .     D
C4427  C6085   1.405   .     S
C4428  C4429   1.389   .     S
C4428  C6030   1.401   .     S
C4429  N4431   1.401   .     D
C4429  H4435   1.150   .     S
C4430  N4432   1.400   .     D
C4430  H4436   1.045   .     S
N4431  N6032   1.592   .     S
N4431  Co3297  1.857   1_565 S
N4432  Co4499  1.875   .     S
C4437  C4438   1.402   .     D
C4437  H4445   1.167   .     S
C4437  C6075   1.405   .     S
C4438  C4439   1.402   .     S
C4438  H4446   1.115   .     S
C4439  C4440   1.510   .     D
C4439  C6073   1.405   .     S
C4440  C4441   1.389   .     S
C4440  C6042   1.401   .     S
C4441  N4443   1.401   .     D
C4441  H4447   1.150   .     S
C4442  N4444   1.400   .     D
C4442  H4448   1.045   .     S
N4443  N6044   1.592   .     S
N4443  Co4598  1.857   .     S
N4444  Co4600  1.875   .     S
C4449  C4450   1.402   .     D
C4450  C4451   1.402   .     S
C4451  C4452   1.510   .     D
C4452  C4453   1.389   .     S
C4452  C4454   1.401   .     S
C4453  N4455   1.401   .     D
C4453  H4459   1.150   .     S
C4454  N4456   1.400   .     D
C4454  H4460   1.045   .     S
N4455  N4456   1.592   .     S
N4456  Co4497  1.875   .     S
H4457  C3249   1.167   1_565 S
H4458  C3250   1.115   1_565 S
C4461  C4462   1.402   .     D
C4461  H4469   1.167   .     S
C4462  C4463   1.402   .     S
C4462  H4470   1.115   .     S
C4463  C4464   1.510   .     D
C4464  C4465   1.389   .     S
C4464  C4466   1.401   .     S
C4465  N4467   1.401   .     D
C4465  H4471   1.150   .     S
C4466  N4468   1.400   .     D
C4466  H4472   1.045   .     S
N4467  N4468   1.592   .     S
N4467  Co4600  1.857   .     S
N4468  Co4598  1.875   .     S
C4473  C4474   1.402   .     D
C4474  C4475   1.402   .     S
C4475  C4476   1.510   .     D
C4476  C4477   1.389   .     S
C4477  N4479   1.401   .     D
C4477  H4483   1.150   .     S
C4478  C6076   1.401   .     S
C4478  N4480   1.400   .     D
C4478  H4484   1.045   .     S
N4480  N6079   1.592   .     S
N4480  Co4497  1.875   .     S
H4481  C3273   1.167   1_565 S
H4482  C3274   1.115   1_565 S
C4485  C4486   1.402   .     D
C4485  H4493   1.167   .     S
C4486  C4487   1.402   .     S
C4486  H4494   1.115   .     S
C4487  C4488   1.510   .     D
C4488  C4489   1.389   .     S
C4489  N4491   1.401   .     D
C4489  H4495   1.150   .     S
C4490  C6088   1.401   .     S
C4490  N4492   1.400   .     D
C4490  H4496   1.045   .     S
N4491  Co4500  1.857   .     S
N4492  N6091   1.592   .     S
N4492  Co4498  1.875   .     S
Co4498 N4743   1.857   1_455 S
Co4498 N4768   1.875   1_455 S
Co4499 N3255   1.857   1_565 S
Co4499 N3279   1.857   1_565 S
Co4500 N4767   1.857   1_455 S
Co4500 N4744   1.875   1_455 S
C4501  C4502   1.402   .     D
C4501  H3309   1.167   1_565 S
C4501  C4563   1.405   .     S
C4502  C4503   1.402   .     S
C4502  H3310   1.115   1_565 S
C4503  C4504   1.510   .     D
C4503  C4561   1.405   .     S
C4504  C4505   1.389   .     S
C4504  C4506   1.401   .     S
C4505  N4507   1.401   .     D
C4505  H4511   1.150   .     S
C4506  N4508   1.400   .     D
C4506  H4512   1.045   .     S
N4507  N4508   1.592   .     S
N4507  Co3397  1.857   1_565 S
N4508  Co4599  1.875   .     S
C4513  C4514   1.402   .     D
C4513  H4521   1.167   .     S
C4513  C4551   1.405   .     S
C4514  C4515   1.402   .     S
C4514  H4522   1.115   .     S
C4515  C4516   1.510   .     D
C4515  C4549   1.405   .     S
C4516  C4517   1.389   .     S
C4516  C4518   1.401   .     S
C4517  N4519   1.401   .     D
C4517  H4523   1.150   .     S
C4518  N4520   1.400   .     D
C4518  H4524   1.045   .     S
N4519  N4520   1.592   .     S
N4519  Co4598  1.857   .     S
N4520  Co4600  1.875   .     S
C4525  C4526   1.402   .     D
C4525  H3333   1.167   1_565 S
C4525  C6187   1.405   .     S
C4526  C4527   1.402   .     S
C4526  H3334   1.115   1_565 S
C4527  C4528   1.510   .     D
C4527  C6185   1.405   .     S
C4528  C4529   1.389   .     S
C4528  C6130   1.401   .     S
C4529  N4531   1.401   .     D
C4529  H4535   1.150   .     S
C4530  N4532   1.400   .     D
C4530  H4536   1.045   .     S
N4531  N6132   1.592   .     S
N4531  Co3397  1.857   1_565 S
N4532  Co4599  1.875   .     S
C4537  C4538   1.402   .     D
C4537  H4545   1.167   .     S
C4537  C6175   1.405   .     S
C4538  C4539   1.402   .     S
C4538  H4546   1.115   .     S
C4539  C4540   1.510   .     D
C4539  C6173   1.405   .     S
C4540  C4541   1.389   .     S
C4540  C6142   1.401   .     S
C4541  N4543   1.401   .     D
C4541  H4547   1.150   .     S
C4542  N4544   1.400   .     D
C4542  H4548   1.045   .     S
N4543  N6144   1.592   .     S
N4543  Co4698  1.857   .     S
N4544  Co4700  1.875   .     S
C4549  C4550   1.402   .     D
C4550  C4551   1.402   .     S
C4551  C4552   1.510   .     D
C4552  C4553   1.389   .     S
C4552  C4554   1.401   .     S
C4553  N4555   1.401   .     D
C4553  H4559   1.150   .     S
C4554  N4556   1.400   .     D
C4554  H4560   1.045   .     S
N4555  N4556   1.592   .     S
N4556  Co4597  1.875   .     S
H4557  C3349   1.167   1_565 S
H4558  C3350   1.115   1_565 S
C4561  C4562   1.402   .     D
C4561  H4569   1.167   .     S
C4562  C4563   1.402   .     S
C4562  H4570   1.115   .     S
C4563  C4564   1.510   .     D
C4564  C4565   1.389   .     S
C4564  C4566   1.401   .     S
C4565  N4567   1.401   .     D
C4565  H4571   1.150   .     S
C4566  N4568   1.400   .     D
C4566  H4572   1.045   .     S
N4567  N4568   1.592   .     S
N4567  Co4700  1.857   .     S
N4568  Co4698  1.875   .     S
C4573  C4574   1.402   .     D
C4574  C4575   1.402   .     S
C4575  C4576   1.510   .     D
C4576  C4577   1.389   .     S
C4577  N4579   1.401   .     D
C4577  H4583   1.150   .     S
C4578  C6176   1.401   .     S
C4578  N4580   1.400   .     D
C4578  H4584   1.045   .     S
N4580  N6179   1.592   .     S
N4580  Co4597  1.875   .     S
H4581  C3373   1.167   1_565 S
H4582  C3374   1.115   1_565 S
C4585  C4586   1.402   .     D
C4585  H4593   1.167   .     S
C4586  C4587   1.402   .     S
C4586  H4594   1.115   .     S
C4587  C4588   1.510   .     D
C4588  C4589   1.389   .     S
C4589  N4591   1.401   .     D
C4589  H4595   1.150   .     S
C4590  C6188   1.401   .     S
C4590  N4592   1.400   .     D
C4590  H4596   1.045   .     S
N4591  Co4600  1.857   .     S
N4592  N6191   1.592   .     S
N4592  Co4598  1.875   .     S
Co4599 N3355   1.857   1_565 S
Co4599 N3379   1.857   1_565 S
C4601  C4602   1.402   .     D
C4601  H3409   1.167   1_565 S
C4601  C4663   1.405   .     S
C4602  C4603   1.402   .     S
C4602  H3410   1.115   1_565 S
C4603  C4604   1.510   .     D
C4603  C4661   1.405   .     S
C4604  C4605   1.389   .     S
C4604  C4606   1.401   .     S
C4605  N4607   1.401   .     D
C4605  H4611   1.150   .     S
C4606  N4608   1.400   .     D
C4606  H4612   1.045   .     S
N4607  N4608   1.592   .     S
N4607  Co3497  1.857   1_565 S
N4608  Co4699  1.875   .     S
C4613  C4614   1.402   .     D
C4613  H4621   1.167   .     S
C4613  C4651   1.405   .     S
C4614  C4615   1.402   .     S
C4614  H4622   1.115   .     S
C4615  C4616   1.510   .     D
C4615  C4649   1.405   .     S
C4616  C4617   1.389   .     S
C4616  C4618   1.401   .     S
C4617  N4619   1.401   .     D
C4617  H4623   1.150   .     S
C4618  N4620   1.400   .     D
C4618  H4624   1.045   .     S
N4619  N4620   1.592   .     S
N4619  Co4698  1.857   .     S
N4620  Co4700  1.875   .     S
C4625  C4626   1.402   .     D
C4625  H3433   1.167   1_565 S
C4625  C6287   1.405   .     S
C4626  C4627   1.402   .     S
C4626  H3434   1.115   1_565 S
C4627  C4628   1.510   .     D
C4627  C6285   1.405   .     S
C4628  C4629   1.389   .     S
C4628  C6230   1.401   .     S
C4629  N4631   1.401   .     D
C4629  H4635   1.150   .     S
C4630  N4632   1.400   .     D
C4630  H4636   1.045   .     S
N4631  N6232   1.592   .     S
N4631  Co3497  1.857   1_565 S
N4632  Co4699  1.875   .     S
C4637  C4638   1.402   .     D
C4637  H4645   1.167   .     S
C4637  C6275   1.405   .     S
C4638  C4639   1.402   .     S
C4638  H4646   1.115   .     S
C4639  C4640   1.510   .     D
C4639  C6273   1.405   .     S
C4640  C4641   1.389   .     S
C4640  C6242   1.401   .     S
C4641  N4643   1.401   .     D
C4641  H4647   1.150   .     S
C4642  N4644   1.400   .     D
C4642  H4648   1.045   .     S
N4643  N6244   1.592   .     S
N4643  Co4798  1.857   .     S
N4644  Co4800  1.875   .     S
C4649  C4650   1.402   .     D
C4650  C4651   1.402   .     S
C4651  C4652   1.510   .     D
C4652  C4653   1.389   .     S
C4652  C4654   1.401   .     S
C4653  N4655   1.401   .     D
C4653  H4659   1.150   .     S
C4654  N4656   1.400   .     D
C4654  H4660   1.045   .     S
N4655  N4656   1.592   .     S
N4656  Co4697  1.875   .     S
H4657  C3449   1.167   1_565 S
H4658  C3450   1.115   1_565 S
C4661  C4662   1.402   .     D
C4661  H4669   1.167   .     S
C4662  C4663   1.402   .     S
C4662  H4670   1.115   .     S
C4663  C4664   1.510   .     D
C4664  C4665   1.389   .     S
C4664  C4666   1.401   .     S
C4665  N4667   1.401   .     D
C4665  H4671   1.150   .     S
C4666  N4668   1.400   .     D
C4666  H4672   1.045   .     S
N4667  N4668   1.592   .     S
N4667  Co4800  1.857   .     S
N4668  Co4798  1.875   .     S
C4673  C4674   1.402   .     D
C4674  C4675   1.402   .     S
C4675  C4676   1.510   .     D
C4676  C4677   1.389   .     S
C4677  N4679   1.401   .     D
C4677  H4683   1.150   .     S
C4678  C6276   1.401   .     S
C4678  N4680   1.400   .     D
C4678  H4684   1.045   .     S
N4680  N6279   1.592   .     S
N4680  Co4697  1.875   .     S
H4681  C3473   1.167   1_565 S
H4682  C3474   1.115   1_565 S
C4685  C4686   1.402   .     D
C4685  H4693   1.167   .     S
C4686  C4687   1.402   .     S
C4686  H4694   1.115   .     S
C4687  C4688   1.510   .     D
C4688  C4689   1.389   .     S
C4689  N4691   1.401   .     D
C4689  H4695   1.150   .     S
C4690  C6288   1.401   .     S
C4690  N4692   1.400   .     D
C4690  H4696   1.045   .     S
N4691  Co4700  1.857   .     S
N4692  N6291   1.592   .     S
N4692  Co4698  1.875   .     S
Co4699 N3455   1.857   1_565 S
Co4699 N3479   1.857   1_565 S
C4701  C4702   1.402   .     D
C4701  H3509   1.167   1_565 S
C4701  C4763   1.405   .     S
C4702  C4703   1.402   .     S
C4702  H3510   1.115   1_565 S
C4703  C4704   1.510   .     D
C4703  C4761   1.405   .     S
C4704  C4705   1.389   .     S
C4704  C4706   1.401   .     S
C4705  N4707   1.401   .     D
C4705  H4711   1.150   .     S
C4706  N4708   1.400   .     D
C4706  H4712   1.045   .     S
N4707  N4708   1.592   .     S
N4707  Co3597  1.857   1_565 S
N4708  Co4799  1.875   .     S
C4713  C4714   1.402   .     D
C4713  H4721   1.167   .     S
C4713  C4751   1.405   .     S
C4714  C4715   1.402   .     S
C4714  H4722   1.115   .     S
C4715  C4716   1.510   .     D
C4715  C4749   1.405   .     S
C4716  C4717   1.389   .     S
C4716  C4718   1.401   .     S
C4717  N4719   1.401   .     D
C4717  H4723   1.150   .     S
C4718  N4720   1.400   .     D
C4718  H4724   1.045   .     S
N4719  N4720   1.592   .     S
N4719  Co4798  1.857   .     S
N4720  Co4800  1.875   .     S
C4725  C4726   1.402   .     D
C4725  H3533   1.167   1_565 S
C4725  C6387   1.405   .     S
C4726  C4727   1.402   .     S
C4726  H3534   1.115   1_565 S
C4727  C4728   1.510   .     D
C4727  C6385   1.405   .     S
C4728  C4729   1.389   .     S
C4728  C6330   1.401   .     S
C4729  N4731   1.401   .     D
C4729  H4735   1.150   .     S
C4730  N4732   1.400   .     D
C4730  H4736   1.045   .     S
N4731  N6332   1.592   .     S
N4731  Co3597  1.857   1_565 S
N4732  Co4799  1.875   .     S
C4737  C4738   1.402   .     D
C4737  H4745   1.167   .     S
C4737  C6375   1.405   .     S
C4738  C4739   1.402   .     S
C4738  H4746   1.115   .     S
C4739  C4740   1.510   .     D
C4739  C6373   1.405   .     S
C4740  C4741   1.389   .     S
C4740  C6342   1.401   .     S
C4741  N4743   1.401   .     D
C4741  H4747   1.150   .     S
C4742  N4744   1.400   .     D
C4742  H4748   1.045   .     S
N4743  N6344   1.592   .     S
N4743  Co4498  1.857   1_655 S
N4744  Co4500  1.875   1_655 S
C4749  C4750   1.402   .     D
C4750  C4751   1.402   .     S
C4751  C4752   1.510   .     D
C4752  C4753   1.389   .     S
C4752  C4754   1.401   .     S
C4753  N4755   1.401   .     D
C4753  H4759   1.150   .     S
C4754  N4756   1.400   .     D
C4754  H4760   1.045   .     S
N4755  N4756   1.592   .     S
N4756  Co4797  1.875   .     S
H4757  C3549   1.167   1_565 S
H4758  C3550   1.115   1_565 S
C4761  C4762   1.402   .     D
C4761  H4769   1.167   .     S
C4762  C4763   1.402   .     S
C4762  H4770   1.115   .     S
C4763  C4764   1.510   .     D
C4764  C4765   1.389   .     S
C4764  C4766   1.401   .     S
C4765  N4767   1.401   .     D
C4765  H4771   1.150   .     S
C4766  N4768   1.400   .     D
C4766  H4772   1.045   .     S
N4767  N4768   1.592   .     S
N4767  Co4500  1.857   1_655 S
N4768  Co4498  1.875   1_655 S
C4773  C4774   1.402   .     D
C4774  C4775   1.402   .     S
C4775  C4776   1.510   .     D
C4776  C4777   1.389   .     S
C4777  N4779   1.401   .     D
C4777  H4783   1.150   .     S
C4778  C6376   1.401   .     S
C4778  N4780   1.400   .     D
C4778  H4784   1.045   .     S
N4780  N6379   1.592   .     S
N4780  Co4797  1.875   .     S
H4781  C3573   1.167   1_565 S
H4782  C3574   1.115   1_565 S
C4785  C4786   1.402   .     D
C4785  H4793   1.167   .     S
C4786  C4787   1.402   .     S
C4786  H4794   1.115   .     S
C4787  C4788   1.510   .     D
C4788  C4789   1.389   .     S
C4789  N4791   1.401   .     D
C4789  H4795   1.150   .     S
C4790  C6388   1.401   .     S
C4790  N4792   1.400   .     D
C4790  H4796   1.045   .     S
N4791  Co4800  1.857   .     S
N4792  N6391   1.592   .     S
N4792  Co4798  1.875   .     S
Co4799 N3555   1.857   1_565 S
Co4799 N3579   1.857   1_565 S
C4801  C4802   1.402   .     D
C4801  H5209   1.167   .     S
C4801  C4863   1.405   .     S
C4802  C4803   1.402   .     S
C4802  H5210   1.115   .     S
C4803  C4804   1.510   .     D
C4803  C4861   1.405   .     S
C4804  C4805   1.389   .     S
C4804  C4806   1.401   .     S
C4805  N4807   1.401   .     D
C4805  H4811   1.150   .     S
C4806  N4808   1.400   .     D
C4806  H4812   1.045   .     S
N4807  N4808   1.592   .     S
N4807  Co5297  1.857   .     S
N4808  Co4899  1.875   .     S
H4809  C6001   1.167   1_545 S
H4810  C6002   1.115   1_545 S
C4813  C4814   1.402   .     D
C4813  H4821   1.167   .     S
C4813  C4851   1.405   .     S
C4814  C4815   1.402   .     S
C4814  H4822   1.115   .     S
C4815  C4816   1.510   .     D
C4815  C4849   1.405   .     S
C4816  C4817   1.389   .     S
C4816  C4818   1.401   .     S
C4817  N4819   1.401   .     D
C4817  H4823   1.150   .     S
C4818  N4820   1.400   .     D
C4818  H4824   1.045   .     S
N4819  N4820   1.592   .     S
N4819  Co4898  1.857   .     S
N4820  Co4900  1.875   .     S
C4825  C4826   1.402   .     D
C4825  H5233   1.167   .     S
C4825  C87     1.405   1_556 S
C4826  C4827   1.402   .     S
C4826  H5234   1.115   .     S
C4827  C4828   1.510   .     D
C4827  C85     1.405   1_556 S
C4828  C4829   1.389   .     S
C4828  C30     1.401   1_556 S
C4829  N4831   1.401   .     D
C4829  H4835   1.150   .     S
C4830  N4832   1.400   .     D
C4830  H4836   1.045   .     S
N4831  N32     1.592   1_556 S
N4831  Co5297  1.857   .     S
N4832  Co4899  1.875   .     S
H4833  C6025   1.167   1_545 S
H4834  C6026   1.115   1_545 S
C4837  C4838   1.402   .     D
C4837  H4845   1.167   .     S
C4837  C75     1.405   1_556 S
C4838  C4839   1.402   .     S
C4838  H4846   1.115   .     S
C4839  C4840   1.510   .     D
C4839  C73     1.405   1_556 S
C4840  C4841   1.389   .     S
C4840  C42     1.401   1_556 S
C4841  N4843   1.401   .     D
C4841  H4847   1.150   .     S
C4842  N4844   1.400   .     D
C4842  H4848   1.045   .     S
N4843  N44     1.592   1_556 S
N4843  Co4998  1.857   .     S
N4844  Co5000  1.875   .     S
C4849  C4850   1.402   .     D
C4849  H6057   1.167   1_545 S
C4850  C4851   1.402   .     S
C4850  H6058   1.115   1_545 S
C4851  C4852   1.510   .     D
C4852  C4853   1.389   .     S
C4852  C4854   1.401   .     S
C4853  N4855   1.401   .     D
C4853  H4859   1.150   .     S
C4854  N4856   1.400   .     D
C4854  H4860   1.045   .     S
N4855  N4856   1.592   .     S
N4855  Co6099  1.857   1_545 S
N4856  Co4897  1.875   .     S
H4857  C5249   1.167   .     S
H4858  C5250   1.115   .     S
C4861  C4862   1.402   .     D
C4861  H4869   1.167   .     S
C4862  C4863   1.402   .     S
C4862  H4870   1.115   .     S
C4863  C4864   1.510   .     D
C4864  C4865   1.389   .     S
C4864  C4866   1.401   .     S
C4865  N4867   1.401   .     D
C4865  H4871   1.150   .     S
C4866  N4868   1.400   .     D
C4866  H4872   1.045   .     S
N4867  N4868   1.592   .     S
N4867  Co5000  1.857   .     S
N4868  Co4998  1.875   .     S
C4873  C4874   1.402   .     D
C4873  H6081   1.167   1_545 S
C4874  C4875   1.402   .     S
C4874  H6082   1.115   1_545 S
C4875  C4876   1.510   .     D
C4876  C4877   1.389   .     S
C4877  N4879   1.401   .     D
C4877  H4883   1.150   .     S
C4878  C76     1.401   1_556 S
C4878  N4880   1.400   .     D
C4878  H4884   1.045   .     S
N4879  Co6099  1.857   1_545 S
N4880  N79     1.592   1_556 S
N4880  Co4897  1.875   .     S
H4881  C5273   1.167   .     S
H4882  C5274   1.115   .     S
C4885  C4886   1.402   .     D
C4885  H4893   1.167   .     S
C4886  C4887   1.402   .     S
C4886  H4894   1.115   .     S
C4887  C4888   1.510   .     D
C4888  C4889   1.389   .     S
C4889  N4891   1.401   .     D
C4889  H4895   1.150   .     S
C4890  C88     1.401   1_556 S
C4890  N4892   1.400   .     D
C4890  H4896   1.045   .     S
N4891  Co4900  1.857   .     S
N4892  N91     1.592   1_556 S
N4892  Co4898  1.875   .     S
Co4897 N6007   1.857   1_545 S
Co4897 N6031   1.857   1_545 S
Co4898 N5143   1.857   1_455 S
Co4898 N5168   1.875   1_455 S
Co4899 N5255   1.857   .     S
Co4899 N5279   1.857   .     S
Co4900 N5167   1.857   1_455 S
Co4900 N5144   1.875   1_455 S
C4901  C4902   1.402   .     D
C4901  H5309   1.167   .     S
C4901  C4963   1.405   .     S
C4902  C4903   1.402   .     S
C4902  H5310   1.115   .     S
C4903  C4904   1.510   .     D
C4903  C4961   1.405   .     S
C4904  C4905   1.389   .     S
C4904  C4906   1.401   .     S
C4905  N4907   1.401   .     D
C4905  H4911   1.150   .     S
C4906  N4908   1.400   .     D
C4906  H4912   1.045   .     S
N4907  N4908   1.592   .     S
N4907  Co5397  1.857   .     S
N4908  Co4999  1.875   .     S
H4909  C6101   1.167   1_545 S
H4910  C6102   1.115   1_545 S
C4913  C4914   1.402   .     D
C4913  H4921   1.167   .     S
C4913  C4951   1.405   .     S
C4914  C4915   1.402   .     S
C4914  H4922   1.115   .     S
C4915  C4916   1.510   .     D
C4915  C4949   1.405   .     S
C4916  C4917   1.389   .     S
C4916  C4918   1.401   .     S
C4917  N4919   1.401   .     D
C4917  H4923   1.150   .     S
C4918  N4920   1.400   .     D
C4918  H4924   1.045   .     S
N4919  N4920   1.592   .     S
N4919  Co4998  1.857   .     S
N4920  Co5000  1.875   .     S
C4925  C4926   1.402   .     D
C4925  H5333   1.167   .     S
C4925  C187    1.405   1_556 S
C4926  C4927   1.402   .     S
C4926  H5334   1.115   .     S
C4927  C4928   1.510   .     D
C4927  C185    1.405   1_556 S
C4928  C4929   1.389   .     S
C4928  C130    1.401   1_556 S
C4929  N4931   1.401   .     D
C4929  H4935   1.150   .     S
C4930  N4932   1.400   .     D
C4930  H4936   1.045   .     S
N4931  N132    1.592   1_556 S
N4931  Co5397  1.857   .     S
N4932  Co4999  1.875   .     S
H4933  C6125   1.167   1_545 S
H4934  C6126   1.115   1_545 S
C4937  C4938   1.402   .     D
C4937  H4945   1.167   .     S
C4937  C175    1.405   1_556 S
C4938  C4939   1.402   .     S
C4938  H4946   1.115   .     S
C4939  C4940   1.510   .     D
C4939  C173    1.405   1_556 S
C4940  C4941   1.389   .     S
C4940  C142    1.401   1_556 S
C4941  N4943   1.401   .     D
C4941  H4947   1.150   .     S
C4942  N4944   1.400   .     D
C4942  H4948   1.045   .     S
N4943  N144    1.592   1_556 S
N4943  Co5098  1.857   .     S
N4944  Co5100  1.875   .     S
C4949  C4950   1.402   .     D
C4949  H6157   1.167   1_545 S
C4950  C4951   1.402   .     S
C4950  H6158   1.115   1_545 S
C4951  C4952   1.510   .     D
C4952  C4953   1.389   .     S
C4952  C4954   1.401   .     S
C4953  N4955   1.401   .     D
C4953  H4959   1.150   .     S
C4954  N4956   1.400   .     D
C4954  H4960   1.045   .     S
N4955  N4956   1.592   .     S
N4955  Co6199  1.857   1_545 S
N4956  Co4997  1.875   .     S
H4957  C5349   1.167   .     S
H4958  C5350   1.115   .     S
C4961  C4962   1.402   .     D
C4961  H4969   1.167   .     S
C4962  C4963   1.402   .     S
C4962  H4970   1.115   .     S
C4963  C4964   1.510   .     D
C4964  C4965   1.389   .     S
C4964  C4966   1.401   .     S
C4965  N4967   1.401   .     D
C4965  H4971   1.150   .     S
C4966  N4968   1.400   .     D
C4966  H4972   1.045   .     S
N4967  N4968   1.592   .     S
N4967  Co5100  1.857   .     S
N4968  Co5098  1.875   .     S
C4973  C4974   1.402   .     D
C4973  H6181   1.167   1_545 S
C4974  C4975   1.402   .     S
C4974  H6182   1.115   1_545 S
C4975  C4976   1.510   .     D
C4976  C4977   1.389   .     S
C4977  N4979   1.401   .     D
C4977  H4983   1.150   .     S
C4978  C176    1.401   1_556 S
C4978  N4980   1.400   .     D
C4978  H4984   1.045   .     S
N4979  Co6199  1.857   1_545 S
N4980  N179    1.592   1_556 S
N4980  Co4997  1.875   .     S
H4981  C5373   1.167   .     S
H4982  C5374   1.115   .     S
C4985  C4986   1.402   .     D
C4985  H4993   1.167   .     S
C4986  C4987   1.402   .     S
C4986  H4994   1.115   .     S
C4987  C4988   1.510   .     D
C4988  C4989   1.389   .     S
C4989  N4991   1.401   .     D
C4989  H4995   1.150   .     S
C4990  C188    1.401   1_556 S
C4990  N4992   1.400   .     D
C4990  H4996   1.045   .     S
N4991  Co5000  1.857   .     S
N4992  N191    1.592   1_556 S
N4992  Co4998  1.875   .     S
Co4997 N6107   1.857   1_545 S
Co4997 N6131   1.857   1_545 S
Co4999 N5355   1.857   .     S
Co4999 N5379   1.857   .     S
C5001  C5002   1.402   .     D
C5001  H5409   1.167   .     S
C5001  C5063   1.405   .     S
C5002  C5003   1.402   .     S
C5002  H5410   1.115   .     S
C5003  C5004   1.510   .     D
C5003  C5061   1.405   .     S
C5004  C5005   1.389   .     S
C5004  C5006   1.401   .     S
C5005  N5007   1.401   .     D
C5005  H5011   1.150   .     S
C5006  N5008   1.400   .     D
C5006  H5012   1.045   .     S
N5007  N5008   1.592   .     S
N5007  Co5497  1.857   .     S
N5008  Co5099  1.875   .     S
H5009  C6201   1.167   1_545 S
H5010  C6202   1.115   1_545 S
C5013  C5014   1.402   .     D
C5013  H5021   1.167   .     S
C5013  C5051   1.405   .     S
C5014  C5015   1.402   .     S
C5014  H5022   1.115   .     S
C5015  C5016   1.510   .     D
C5015  C5049   1.405   .     S
C5016  C5017   1.389   .     S
C5016  C5018   1.401   .     S
C5017  N5019   1.401   .     D
C5017  H5023   1.150   .     S
C5018  N5020   1.400   .     D
C5018  H5024   1.045   .     S
N5019  N5020   1.592   .     S
N5019  Co5098  1.857   .     S
N5020  Co5100  1.875   .     S
C5025  C5026   1.402   .     D
C5025  H5433   1.167   .     S
C5025  C287    1.405   1_556 S
C5026  C5027   1.402   .     S
C5026  H5434   1.115   .     S
C5027  C5028   1.510   .     D
C5027  C285    1.405   1_556 S
C5028  C5029   1.389   .     S
C5028  C230    1.401   1_556 S
C5029  N5031   1.401   .     D
C5029  H5035   1.150   .     S
C5030  N5032   1.400   .     D
C5030  H5036   1.045   .     S
N5031  N232    1.592   1_556 S
N5031  Co5497  1.857   .     S
N5032  Co5099  1.875   .     S
H5033  C6225   1.167   1_545 S
H5034  C6226   1.115   1_545 S
C5037  C5038   1.402   .     D
C5037  H5045   1.167   .     S
C5037  C275    1.405   1_556 S
C5038  C5039   1.402   .     S
C5038  H5046   1.115   .     S
C5039  C5040   1.510   .     D
C5039  C273    1.405   1_556 S
C5040  C5041   1.389   .     S
C5040  C242    1.401   1_556 S
C5041  N5043   1.401   .     D
C5041  H5047   1.150   .     S
C5042  N5044   1.400   .     D
C5042  H5048   1.045   .     S
N5043  N244    1.592   1_556 S
N5043  Co5198  1.857   .     S
N5044  Co5200  1.875   .     S
C5049  C5050   1.402   .     D
C5049  H6257   1.167   1_545 S
C5050  C5051   1.402   .     S
C5050  H6258   1.115   1_545 S
C5051  C5052   1.510   .     D
C5052  C5053   1.389   .     S
C5052  C5054   1.401   .     S
C5053  N5055   1.401   .     D
C5053  H5059   1.150   .     S
C5054  N5056   1.400   .     D
C5054  H5060   1.045   .     S
N5055  N5056   1.592   .     S
N5055  Co6299  1.857   1_545 S
N5056  Co5097  1.875   .     S
H5057  C5449   1.167   .     S
H5058  C5450   1.115   .     S
C5061  C5062   1.402   .     D
C5061  H5069   1.167   .     S
C5062  C5063   1.402   .     S
C5062  H5070   1.115   .     S
C5063  C5064   1.510   .     D
C5064  C5065   1.389   .     S
C5064  C5066   1.401   .     S
C5065  N5067   1.401   .     D
C5065  H5071   1.150   .     S
C5066  N5068   1.400   .     D
C5066  H5072   1.045   .     S
N5067  N5068   1.592   .     S
N5067  Co5200  1.857   .     S
N5068  Co5198  1.875   .     S
C5073  C5074   1.402   .     D
C5073  H6281   1.167   1_545 S
C5074  C5075   1.402   .     S
C5074  H6282   1.115   1_545 S
C5075  C5076   1.510   .     D
C5076  C5077   1.389   .     S
C5077  N5079   1.401   .     D
C5077  H5083   1.150   .     S
C5078  C276    1.401   1_556 S
C5078  N5080   1.400   .     D
C5078  H5084   1.045   .     S
N5079  Co6299  1.857   1_545 S
N5080  N279    1.592   1_556 S
N5080  Co5097  1.875   .     S
H5081  C5473   1.167   .     S
H5082  C5474   1.115   .     S
C5085  C5086   1.402   .     D
C5085  H5093   1.167   .     S
C5086  C5087   1.402   .     S
C5086  H5094   1.115   .     S
C5087  C5088   1.510   .     D
C5088  C5089   1.389   .     S
C5089  N5091   1.401   .     D
C5089  H5095   1.150   .     S
C5090  C288    1.401   1_556 S
C5090  N5092   1.400   .     D
C5090  H5096   1.045   .     S
N5091  Co5100  1.857   .     S
N5092  N291    1.592   1_556 S
N5092  Co5098  1.875   .     S
Co5097 N6207   1.857   1_545 S
Co5097 N6231   1.857   1_545 S
Co5099 N5455   1.857   .     S
Co5099 N5479   1.857   .     S
C5101  C5102   1.402   .     D
C5101  H5509   1.167   .     S
C5101  C5163   1.405   .     S
C5102  C5103   1.402   .     S
C5102  H5510   1.115   .     S
C5103  C5104   1.510   .     D
C5103  C5161   1.405   .     S
C5104  C5105   1.389   .     S
C5104  C5106   1.401   .     S
C5105  N5107   1.401   .     D
C5105  H5111   1.150   .     S
C5106  N5108   1.400   .     D
C5106  H5112   1.045   .     S
N5107  N5108   1.592   .     S
N5107  Co5597  1.857   .     S
N5108  Co5199  1.875   .     S
H5109  C6301   1.167   1_545 S
H5110  C6302   1.115   1_545 S
C5113  C5114   1.402   .     D
C5113  H5121   1.167   .     S
C5113  C5151   1.405   .     S
C5114  C5115   1.402   .     S
C5114  H5122   1.115   .     S
C5115  C5116   1.510   .     D
C5115  C5149   1.405   .     S
C5116  C5117   1.389   .     S
C5116  C5118   1.401   .     S
C5117  N5119   1.401   .     D
C5117  H5123   1.150   .     S
C5118  N5120   1.400   .     D
C5118  H5124   1.045   .     S
N5119  N5120   1.592   .     S
N5119  Co5198  1.857   .     S
N5120  Co5200  1.875   .     S
C5125  C5126   1.402   .     D
C5125  H5533   1.167   .     S
C5125  C387    1.405   1_556 S
C5126  C5127   1.402   .     S
C5126  H5534   1.115   .     S
C5127  C5128   1.510   .     D
C5127  C385    1.405   1_556 S
C5128  C5129   1.389   .     S
C5128  C330    1.401   1_556 S
C5129  N5131   1.401   .     D
C5129  H5135   1.150   .     S
C5130  N5132   1.400   .     D
C5130  H5136   1.045   .     S
N5131  N332    1.592   1_556 S
N5131  Co5597  1.857   .     S
N5132  Co5199  1.875   .     S
H5133  C6325   1.167   1_545 S
H5134  C6326   1.115   1_545 S
C5137  C5138   1.402   .     D
C5137  H5145   1.167   .     S
C5137  C375    1.405   1_556 S
C5138  C5139   1.402   .     S
C5138  H5146   1.115   .     S
C5139  C5140   1.510   .     D
C5139  C373    1.405   1_556 S
C5140  C5141   1.389   .     S
C5140  C342    1.401   1_556 S
C5141  N5143   1.401   .     D
C5141  H5147   1.150   .     S
C5142  N5144   1.400   .     D
C5142  H5148   1.045   .     S
N5143  N344    1.592   1_556 S
N5143  Co4898  1.857   1_655 S
N5144  Co4900  1.875   1_655 S
C5149  C5150   1.402   .     D
C5149  H6357   1.167   1_545 S
C5150  C5151   1.402   .     S
C5150  H6358   1.115   1_545 S
C5151  C5152   1.510   .     D
C5152  C5153   1.389   .     S
C5152  C5154   1.401   .     S
C5153  N5155   1.401   .     D
C5153  H5159   1.150   .     S
C5154  N5156   1.400   .     D
C5154  H5160   1.045   .     S
N5155  N5156   1.592   .     S
N5155  Co6399  1.857   1_545 S
N5156  Co5197  1.875   .     S
H5157  C5549   1.167   .     S
H5158  C5550   1.115   .     S
C5161  C5162   1.402   .     D
C5161  H5169   1.167   .     S
C5162  C5163   1.402   .     S
C5162  H5170   1.115   .     S
C5163  C5164   1.510   .     D
C5164  C5165   1.389   .     S
C5164  C5166   1.401   .     S
C5165  N5167   1.401   .     D
C5165  H5171   1.150   .     S
C5166  N5168   1.400   .     D
C5166  H5172   1.045   .     S
N5167  N5168   1.592   .     S
N5167  Co4900  1.857   1_655 S
N5168  Co4898  1.875   1_655 S
C5173  C5174   1.402   .     D
C5173  H6381   1.167   1_545 S
C5174  C5175   1.402   .     S
C5174  H6382   1.115   1_545 S
C5175  C5176   1.510   .     D
C5176  C5177   1.389   .     S
C5177  N5179   1.401   .     D
C5177  H5183   1.150   .     S
C5178  C376    1.401   1_556 S
C5178  N5180   1.400   .     D
C5178  H5184   1.045   .     S
N5179  Co6399  1.857   1_545 S
N5180  N379    1.592   1_556 S
N5180  Co5197  1.875   .     S
H5181  C5573   1.167   .     S
H5182  C5574   1.115   .     S
C5185  C5186   1.402   .     D
C5185  H5193   1.167   .     S
C5186  C5187   1.402   .     S
C5186  H5194   1.115   .     S
C5187  C5188   1.510   .     D
C5188  C5189   1.389   .     S
C5189  N5191   1.401   .     D
C5189  H5195   1.150   .     S
C5190  C388    1.401   1_556 S
C5190  N5192   1.400   .     D
C5190  H5196   1.045   .     S
N5191  Co5200  1.857   .     S
N5192  N391    1.592   1_556 S
N5192  Co5198  1.875   .     S
Co5197 N6307   1.857   1_545 S
Co5197 N6331   1.857   1_545 S
Co5199 N5555   1.857   .     S
Co5199 N5579   1.857   .     S
C5201  C5202   1.402   .     D
C5201  H5609   1.167   .     S
C5201  C5263   1.405   .     S
C5202  C5203   1.402   .     S
C5202  H5610   1.115   .     S
C5203  C5204   1.510   .     D
C5203  C5261   1.405   .     S
C5204  C5205   1.389   .     S
C5204  C5206   1.401   .     S
C5205  N5207   1.401   .     D
C5205  H5211   1.150   .     S
C5206  N5208   1.400   .     D
C5206  H5212   1.045   .     S
N5207  N5208   1.592   .     S
N5207  Co5697  1.857   .     S
N5208  Co5299  1.875   .     S
C5213  C5214   1.402   .     D
C5213  H5221   1.167   .     S
C5213  C5251   1.405   .     S
C5214  C5215   1.402   .     S
C5214  H5222   1.115   .     S
C5215  C5216   1.510   .     D
C5215  C5249   1.405   .     S
C5216  C5217   1.389   .     S
C5216  C5218   1.401   .     S
C5217  N5219   1.401   .     D
C5217  H5223   1.150   .     S
C5218  N5220   1.400   .     D
C5218  H5224   1.045   .     S
N5219  N5220   1.592   .     S
N5219  Co5298  1.857   .     S
N5220  Co5300  1.875   .     S
C5225  C5226   1.402   .     D
C5225  H5633   1.167   .     S
C5225  C487    1.405   1_556 S
C5226  C5227   1.402   .     S
C5226  H5634   1.115   .     S
C5227  C5228   1.510   .     D
C5227  C485    1.405   1_556 S
C5228  C5229   1.389   .     S
C5228  C430    1.401   1_556 S
C5229  N5231   1.401   .     D
C5229  H5235   1.150   .     S
C5230  N5232   1.400   .     D
C5230  H5236   1.045   .     S
N5231  N432    1.592   1_556 S
N5231  Co5697  1.857   .     S
N5232  Co5299  1.875   .     S
C5237  C5238   1.402   .     D
C5237  H5245   1.167   .     S
C5237  C475    1.405   1_556 S
C5238  C5239   1.402   .     S
C5238  H5246   1.115   .     S
C5239  C5240   1.510   .     D
C5239  C473    1.405   1_556 S
C5240  C5241   1.389   .     S
C5240  C442    1.401   1_556 S
C5241  N5243   1.401   .     D
C5241  H5247   1.150   .     S
C5242  N5244   1.400   .     D
C5242  H5248   1.045   .     S
N5243  N444    1.592   1_556 S
N5243  Co5398  1.857   .     S
N5244  Co5400  1.875   .     S
C5249  C5250   1.402   .     D
C5250  C5251   1.402   .     S
C5251  C5252   1.510   .     D
C5252  C5253   1.389   .     S
C5252  C5254   1.401   .     S
C5253  N5255   1.401   .     D
C5253  H5259   1.150   .     S
C5254  N5256   1.400   .     D
C5254  H5260   1.045   .     S
N5255  N5256   1.592   .     S
N5256  Co5297  1.875   .     S
H5257  C5649   1.167   .     S
H5258  C5650   1.115   .     S
C5261  C5262   1.402   .     D
C5261  H5269   1.167   .     S
C5262  C5263   1.402   .     S
C5262  H5270   1.115   .     S
C5263  C5264   1.510   .     D
C5264  C5265   1.389   .     S
C5264  C5266   1.401   .     S
C5265  N5267   1.401   .     D
C5265  H5271   1.150   .     S
C5266  N5268   1.400   .     D
C5266  H5272   1.045   .     S
N5267  N5268   1.592   .     S
N5267  Co5400  1.857   .     S
N5268  Co5398  1.875   .     S
C5273  C5274   1.402   .     D
C5274  C5275   1.402   .     S
C5275  C5276   1.510   .     D
C5276  C5277   1.389   .     S
C5277  N5279   1.401   .     D
C5277  H5283   1.150   .     S
C5278  C476    1.401   1_556 S
C5278  N5280   1.400   .     D
C5278  H5284   1.045   .     S
N5280  N479    1.592   1_556 S
N5280  Co5297  1.875   .     S
H5281  C5673   1.167   .     S
H5282  C5674   1.115   .     S
C5285  C5286   1.402   .     D
C5285  H5293   1.167   .     S
C5286  C5287   1.402   .     S
C5286  H5294   1.115   .     S
C5287  C5288   1.510   .     D
C5288  C5289   1.389   .     S
C5289  N5291   1.401   .     D
C5289  H5295   1.150   .     S
C5290  C488    1.401   1_556 S
C5290  N5292   1.400   .     D
C5290  H5296   1.045   .     S
N5291  Co5300  1.857   .     S
N5292  N491    1.592   1_556 S
N5292  Co5298  1.875   .     S
Co5298 N5543   1.857   1_455 S
Co5298 N5568   1.875   1_455 S
Co5299 N5655   1.857   .     S
Co5299 N5679   1.857   .     S
Co5300 N5567   1.857   1_455 S
Co5300 N5544   1.875   1_455 S
C5301  C5302   1.402   .     D
C5301  H5709   1.167   .     S
C5301  C5363   1.405   .     S
C5302  C5303   1.402   .     S
C5302  H5710   1.115   .     S
C5303  C5304   1.510   .     D
C5303  C5361   1.405   .     S
C5304  C5305   1.389   .     S
C5304  C5306   1.401   .     S
C5305  N5307   1.401   .     D
C5305  H5311   1.150   .     S
C5306  N5308   1.400   .     D
C5306  H5312   1.045   .     S
N5307  N5308   1.592   .     S
N5307  Co5797  1.857   .     S
N5308  Co5399  1.875   .     S
C5313  C5314   1.402   .     D
C5313  H5321   1.167   .     S
C5313  C5351   1.405   .     S
C5314  C5315   1.402   .     S
C5314  H5322   1.115   .     S
C5315  C5316   1.510   .     D
C5315  C5349   1.405   .     S
C5316  C5317   1.389   .     S
C5316  C5318   1.401   .     S
C5317  N5319   1.401   .     D
C5317  H5323   1.150   .     S
C5318  N5320   1.400   .     D
C5318  H5324   1.045   .     S
N5319  N5320   1.592   .     S
N5319  Co5398  1.857   .     S
N5320  Co5400  1.875   .     S
C5325  C5326   1.402   .     D
C5325  H5733   1.167   .     S
C5325  C587    1.405   1_556 S
C5326  C5327   1.402   .     S
C5326  H5734   1.115   .     S
C5327  C5328   1.510   .     D
C5327  C585    1.405   1_556 S
C5328  C5329   1.389   .     S
C5328  C530    1.401   1_556 S
C5329  N5331   1.401   .     D
C5329  H5335   1.150   .     S
C5330  N5332   1.400   .     D
C5330  H5336   1.045   .     S
N5331  N532    1.592   1_556 S
N5331  Co5797  1.857   .     S
N5332  Co5399  1.875   .     S
C5337  C5338   1.402   .     D
C5337  H5345   1.167   .     S
C5337  C575    1.405   1_556 S
C5338  C5339   1.402   .     S
C5338  H5346   1.115   .     S
C5339  C5340   1.510   .     D
C5339  C573    1.405   1_556 S
C5340  C5341   1.389   .     S
C5340  C542    1.401   1_556 S
C5341  N5343   1.401   .     D
C5341  H5347   1.150   .     S
C5342  N5344   1.400   .     D
C5342  H5348   1.045   .     S
N5343  N544    1.592   1_556 S
N5343  Co5498  1.857   .     S
N5344  Co5500  1.875   .     S
C5349  C5350   1.402   .     D
C5350  C5351   1.402   .     S
C5351  C5352   1.510   .     D
C5352  C5353   1.389   .     S
C5352  C5354   1.401   .     S
C5353  N5355   1.401   .     D
C5353  H5359   1.150   .     S
C5354  N5356   1.400   .     D
C5354  H5360   1.045   .     S
N5355  N5356   1.592   .     S
N5356  Co5397  1.875   .     S
H5357  C5749   1.167   .     S
H5358  C5750   1.115   .     S
C5361  C5362   1.402   .     D
C5361  H5369   1.167   .     S
C5362  C5363   1.402   .     S
C5362  H5370   1.115   .     S
C5363  C5364   1.510   .     D
C5364  C5365   1.389   .     S
C5364  C5366   1.401   .     S
C5365  N5367   1.401   .     D
C5365  H5371   1.150   .     S
C5366  N5368   1.400   .     D
C5366  H5372   1.045   .     S
N5367  N5368   1.592   .     S
N5367  Co5500  1.857   .     S
N5368  Co5498  1.875   .     S
C5373  C5374   1.402   .     D
C5374  C5375   1.402   .     S
C5375  C5376   1.510   .     D
C5376  C5377   1.389   .     S
C5377  N5379   1.401   .     D
C5377  H5383   1.150   .     S
C5378  C576    1.401   1_556 S
C5378  N5380   1.400   .     D
C5378  H5384   1.045   .     S
N5380  N579    1.592   1_556 S
N5380  Co5397  1.875   .     S
H5381  C5773   1.167   .     S
H5382  C5774   1.115   .     S
C5385  C5386   1.402   .     D
C5385  H5393   1.167   .     S
C5386  C5387   1.402   .     S
C5386  H5394   1.115   .     S
C5387  C5388   1.510   .     D
C5388  C5389   1.389   .     S
C5389  N5391   1.401   .     D
C5389  H5395   1.150   .     S
C5390  C588    1.401   1_556 S
C5390  N5392   1.400   .     D
C5390  H5396   1.045   .     S
N5391  Co5400  1.857   .     S
N5392  N591    1.592   1_556 S
N5392  Co5398  1.875   .     S
Co5399 N5755   1.857   .     S
Co5399 N5779   1.857   .     S
C5401  C5402   1.402   .     D
C5401  H5809   1.167   .     S
C5401  C5463   1.405   .     S
C5402  C5403   1.402   .     S
C5402  H5810   1.115   .     S
C5403  C5404   1.510   .     D
C5403  C5461   1.405   .     S
C5404  C5405   1.389   .     S
C5404  C5406   1.401   .     S
C5405  N5407   1.401   .     D
C5405  H5411   1.150   .     S
C5406  N5408   1.400   .     D
C5406  H5412   1.045   .     S
N5407  N5408   1.592   .     S
N5407  Co5897  1.857   .     S
N5408  Co5499  1.875   .     S
C5413  C5414   1.402   .     D
C5413  H5421   1.167   .     S
C5413  C5451   1.405   .     S
C5414  C5415   1.402   .     S
C5414  H5422   1.115   .     S
C5415  C5416   1.510   .     D
C5415  C5449   1.405   .     S
C5416  C5417   1.389   .     S
C5416  C5418   1.401   .     S
C5417  N5419   1.401   .     D
C5417  H5423   1.150   .     S
C5418  N5420   1.400   .     D
C5418  H5424   1.045   .     S
N5419  N5420   1.592   .     S
N5419  Co5498  1.857   .     S
N5420  Co5500  1.875   .     S
C5425  C5426   1.402   .     D
C5425  H5833   1.167   .     S
C5425  C687    1.405   1_556 S
C5426  C5427   1.402   .     S
C5426  H5834   1.115   .     S
C5427  C5428   1.510   .     D
C5427  C685    1.405   1_556 S
C5428  C5429   1.389   .     S
C5428  C630    1.401   1_556 S
C5429  N5431   1.401   .     D
C5429  H5435   1.150   .     S
C5430  N5432   1.400   .     D
C5430  H5436   1.045   .     S
N5431  N632    1.592   1_556 S
N5431  Co5897  1.857   .     S
N5432  Co5499  1.875   .     S
C5437  C5438   1.402   .     D
C5437  H5445   1.167   .     S
C5437  C675    1.405   1_556 S
C5438  C5439   1.402   .     S
C5438  H5446   1.115   .     S
C5439  C5440   1.510   .     D
C5439  C673    1.405   1_556 S
C5440  C5441   1.389   .     S
C5440  C642    1.401   1_556 S
C5441  N5443   1.401   .     D
C5441  H5447   1.150   .     S
C5442  N5444   1.400   .     D
C5442  H5448   1.045   .     S
N5443  N644    1.592   1_556 S
N5443  Co5598  1.857   .     S
N5444  Co5600  1.875   .     S
C5449  C5450   1.402   .     D
C5450  C5451   1.402   .     S
C5451  C5452   1.510   .     D
C5452  C5453   1.389   .     S
C5452  C5454   1.401   .     S
C5453  N5455   1.401   .     D
C5453  H5459   1.150   .     S
C5454  N5456   1.400   .     D
C5454  H5460   1.045   .     S
N5455  N5456   1.592   .     S
N5456  Co5497  1.875   .     S
H5457  C5849   1.167   .     S
H5458  C5850   1.115   .     S
C5461  C5462   1.402   .     D
C5461  H5469   1.167   .     S
C5462  C5463   1.402   .     S
C5462  H5470   1.115   .     S
C5463  C5464   1.510   .     D
C5464  C5465   1.389   .     S
C5464  C5466   1.401   .     S
C5465  N5467   1.401   .     D
C5465  H5471   1.150   .     S
C5466  N5468   1.400   .     D
C5466  H5472   1.045   .     S
N5467  N5468   1.592   .     S
N5467  Co5600  1.857   .     S
N5468  Co5598  1.875   .     S
C5473  C5474   1.402   .     D
C5474  C5475   1.402   .     S
C5475  C5476   1.510   .     D
C5476  C5477   1.389   .     S
C5477  N5479   1.401   .     D
C5477  H5483   1.150   .     S
C5478  C676    1.401   1_556 S
C5478  N5480   1.400   .     D
C5478  H5484   1.045   .     S
N5480  N679    1.592   1_556 S
N5480  Co5497  1.875   .     S
H5481  C5873   1.167   .     S
H5482  C5874   1.115   .     S
C5485  C5486   1.402   .     D
C5485  H5493   1.167   .     S
C5486  C5487   1.402   .     S
C5486  H5494   1.115   .     S
C5487  C5488   1.510   .     D
C5488  C5489   1.389   .     S
C5489  N5491   1.401   .     D
C5489  H5495   1.150   .     S
C5490  C688    1.401   1_556 S
C5490  N5492   1.400   .     D
C5490  H5496   1.045   .     S
N5491  Co5500  1.857   .     S
N5492  N691    1.592   1_556 S
N5492  Co5498  1.875   .     S
Co5499 N5855   1.857   .     S
Co5499 N5879   1.857   .     S
C5501  C5502   1.402   .     D
C5501  H5909   1.167   .     S
C5501  C5563   1.405   .     S
C5502  C5503   1.402   .     S
C5502  H5910   1.115   .     S
C5503  C5504   1.510   .     D
C5503  C5561   1.405   .     S
C5504  C5505   1.389   .     S
C5504  C5506   1.401   .     S
C5505  N5507   1.401   .     D
C5505  H5511   1.150   .     S
C5506  N5508   1.400   .     D
C5506  H5512   1.045   .     S
N5507  N5508   1.592   .     S
N5507  Co5997  1.857   .     S
N5508  Co5599  1.875   .     S
C5513  C5514   1.402   .     D
C5513  H5521   1.167   .     S
C5513  C5551   1.405   .     S
C5514  C5515   1.402   .     S
C5514  H5522   1.115   .     S
C5515  C5516   1.510   .     D
C5515  C5549   1.405   .     S
C5516  C5517   1.389   .     S
C5516  C5518   1.401   .     S
C5517  N5519   1.401   .     D
C5517  H5523   1.150   .     S
C5518  N5520   1.400   .     D
C5518  H5524   1.045   .     S
N5519  N5520   1.592   .     S
N5519  Co5598  1.857   .     S
N5520  Co5600  1.875   .     S
C5525  C5526   1.402   .     D
C5525  H5933   1.167   .     S
C5525  C787    1.405   1_556 S
C5526  C5527   1.402   .     S
C5526  H5934   1.115   .     S
C5527  C5528   1.510   .     D
C5527  C785    1.405   1_556 S
C5528  C5529   1.389   .     S
C5528  C730    1.401   1_556 S
C5529  N5531   1.401   .     D
C5529  H5535   1.150   .     S
C5530  N5532   1.400   .     D
C5530  H5536   1.045   .     S
N5531  N732    1.592   1_556 S
N5531  Co5997  1.857   .     S
N5532  Co5599  1.875   .     S
C5537  C5538   1.402   .     D
C5537  H5545   1.167   .     S
C5537  C775    1.405   1_556 S
C5538  C5539   1.402   .     S
C5538  H5546   1.115   .     S
C5539  C5540   1.510   .     D
C5539  C773    1.405   1_556 S
C5540  C5541   1.389   .     S
C5540  C742    1.401   1_556 S
C5541  N5543   1.401   .     D
C5541  H5547   1.150   .     S
C5542  N5544   1.400   .     D
C5542  H5548   1.045   .     S
N5543  N744    1.592   1_556 S
N5543  Co5298  1.857   1_655 S
N5544  Co5300  1.875   1_655 S
C5549  C5550   1.402   .     D
C5550  C5551   1.402   .     S
C5551  C5552   1.510   .     D
C5552  C5553   1.389   .     S
C5552  C5554   1.401   .     S
C5553  N5555   1.401   .     D
C5553  H5559   1.150   .     S
C5554  N5556   1.400   .     D
C5554  H5560   1.045   .     S
N5555  N5556   1.592   .     S
N5556  Co5597  1.875   .     S
H5557  C5949   1.167   .     S
H5558  C5950   1.115   .     S
C5561  C5562   1.402   .     D
C5561  H5569   1.167   .     S
C5562  C5563   1.402   .     S
C5562  H5570   1.115   .     S
C5563  C5564   1.510   .     D
C5564  C5565   1.389   .     S
C5564  C5566   1.401   .     S
C5565  N5567   1.401   .     D
C5565  H5571   1.150   .     S
C5566  N5568   1.400   .     D
C5566  H5572   1.045   .     S
N5567  N5568   1.592   .     S
N5567  Co5300  1.857   1_655 S
N5568  Co5298  1.875   1_655 S
C5573  C5574   1.402   .     D
C5574  C5575   1.402   .     S
C5575  C5576   1.510   .     D
C5576  C5577   1.389   .     S
C5577  N5579   1.401   .     D
C5577  H5583   1.150   .     S
C5578  C776    1.401   1_556 S
C5578  N5580   1.400   .     D
C5578  H5584   1.045   .     S
N5580  N779    1.592   1_556 S
N5580  Co5597  1.875   .     S
H5581  C5973   1.167   .     S
H5582  C5974   1.115   .     S
C5585  C5586   1.402   .     D
C5585  H5593   1.167   .     S
C5586  C5587   1.402   .     S
C5586  H5594   1.115   .     S
C5587  C5588   1.510   .     D
C5588  C5589   1.389   .     S
C5589  N5591   1.401   .     D
C5589  H5595   1.150   .     S
C5590  C788    1.401   1_556 S
C5590  N5592   1.400   .     D
C5590  H5596   1.045   .     S
N5591  Co5600  1.857   .     S
N5592  N791    1.592   1_556 S
N5592  Co5598  1.875   .     S
Co5599 N5955   1.857   .     S
Co5599 N5979   1.857   .     S
C5601  C5602   1.402   .     D
C5601  H6009   1.167   .     S
C5601  C5663   1.405   .     S
C5602  C5603   1.402   .     S
C5602  H6010   1.115   .     S
C5603  C5604   1.510   .     D
C5603  C5661   1.405   .     S
C5604  C5605   1.389   .     S
C5604  C5606   1.401   .     S
C5605  N5607   1.401   .     D
C5605  H5611   1.150   .     S
C5606  N5608   1.400   .     D
C5606  H5612   1.045   .     S
N5607  N5608   1.592   .     S
N5607  Co6097  1.857   .     S
N5608  Co5699  1.875   .     S
C5613  C5614   1.402   .     D
C5613  H5621   1.167   .     S
C5613  C5651   1.405   .     S
C5614  C5615   1.402   .     S
C5614  H5622   1.115   .     S
C5615  C5616   1.510   .     D
C5615  C5649   1.405   .     S
C5616  C5617   1.389   .     S
C5616  C5618   1.401   .     S
C5617  N5619   1.401   .     D
C5617  H5623   1.150   .     S
C5618  N5620   1.400   .     D
C5618  H5624   1.045   .     S
N5619  N5620   1.592   .     S
N5619  Co5698  1.857   .     S
N5620  Co5700  1.875   .     S
C5625  C5626   1.402   .     D
C5625  H6033   1.167   .     S
C5625  C887    1.405   1_556 S
C5626  C5627   1.402   .     S
C5626  H6034   1.115   .     S
C5627  C5628   1.510   .     D
C5627  C885    1.405   1_556 S
C5628  C5629   1.389   .     S
C5628  C830    1.401   1_556 S
C5629  N5631   1.401   .     D
C5629  H5635   1.150   .     S
C5630  N5632   1.400   .     D
C5630  H5636   1.045   .     S
N5631  N832    1.592   1_556 S
N5631  Co6097  1.857   .     S
N5632  Co5699  1.875   .     S
C5637  C5638   1.402   .     D
C5637  H5645   1.167   .     S
C5637  C875    1.405   1_556 S
C5638  C5639   1.402   .     S
C5638  H5646   1.115   .     S
C5639  C5640   1.510   .     D
C5639  C873    1.405   1_556 S
C5640  C5641   1.389   .     S
C5640  C842    1.401   1_556 S
C5641  N5643   1.401   .     D
C5641  H5647   1.150   .     S
C5642  N5644   1.400   .     D
C5642  H5648   1.045   .     S
N5643  N844    1.592   1_556 S
N5643  Co5798  1.857   .     S
N5644  Co5800  1.875   .     S
C5649  C5650   1.402   .     D
C5650  C5651   1.402   .     S
C5651  C5652   1.510   .     D
C5652  C5653   1.389   .     S
C5652  C5654   1.401   .     S
C5653  N5655   1.401   .     D
C5653  H5659   1.150   .     S
C5654  N5656   1.400   .     D
C5654  H5660   1.045   .     S
N5655  N5656   1.592   .     S
N5656  Co5697  1.875   .     S
H5657  C6049   1.167   .     S
H5658  C6050   1.115   .     S
C5661  C5662   1.402   .     D
C5661  H5669   1.167   .     S
C5662  C5663   1.402   .     S
C5662  H5670   1.115   .     S
C5663  C5664   1.510   .     D
C5664  C5665   1.389   .     S
C5664  C5666   1.401   .     S
C5665  N5667   1.401   .     D
C5665  H5671   1.150   .     S
C5666  N5668   1.400   .     D
C5666  H5672   1.045   .     S
N5667  N5668   1.592   .     S
N5667  Co5800  1.857   .     S
N5668  Co5798  1.875   .     S
C5673  C5674   1.402   .     D
C5674  C5675   1.402   .     S
C5675  C5676   1.510   .     D
C5676  C5677   1.389   .     S
C5677  N5679   1.401   .     D
C5677  H5683   1.150   .     S
C5678  C876    1.401   1_556 S
C5678  N5680   1.400   .     D
C5678  H5684   1.045   .     S
N5680  N879    1.592   1_556 S
N5680  Co5697  1.875   .     S
H5681  C6073   1.167   .     S
H5682  C6074   1.115   .     S
C5685  C5686   1.402   .     D
C5685  H5693   1.167   .     S
C5686  C5687   1.402   .     S
C5686  H5694   1.115   .     S
C5687  C5688   1.510   .     D
C5688  C5689   1.389   .     S
C5689  N5691   1.401   .     D
C5689  H5695   1.150   .     S
C5690  C888    1.401   1_556 S
C5690  N5692   1.400   .     D
C5690  H5696   1.045   .     S
N5691  Co5700  1.857   .     S
N5692  N891    1.592   1_556 S
N5692  Co5698  1.875   .     S
Co5698 N5943   1.857   1_455 S
Co5698 N5968   1.875   1_455 S
Co5699 N6055   1.857   .     S
Co5699 N6079   1.857   .     S
Co5700 N5967   1.857   1_455 S
Co5700 N5944   1.875   1_455 S
C5701  C5702   1.402   .     D
C5701  H6109   1.167   .     S
C5701  C5763   1.405   .     S
C5702  C5703   1.402   .     S
C5702  H6110   1.115   .     S
C5703  C5704   1.510   .     D
C5703  C5761   1.405   .     S
C5704  C5705   1.389   .     S
C5704  C5706   1.401   .     S
C5705  N5707   1.401   .     D
C5705  H5711   1.150   .     S
C5706  N5708   1.400   .     D
C5706  H5712   1.045   .     S
N5707  N5708   1.592   .     S
N5707  Co6197  1.857   .     S
N5708  Co5799  1.875   .     S
C5713  C5714   1.402   .     D
C5713  H5721   1.167   .     S
C5713  C5751   1.405   .     S
C5714  C5715   1.402   .     S
C5714  H5722   1.115   .     S
C5715  C5716   1.510   .     D
C5715  C5749   1.405   .     S
C5716  C5717   1.389   .     S
C5716  C5718   1.401   .     S
C5717  N5719   1.401   .     D
C5717  H5723   1.150   .     S
C5718  N5720   1.400   .     D
C5718  H5724   1.045   .     S
N5719  N5720   1.592   .     S
N5719  Co5798  1.857   .     S
N5720  Co5800  1.875   .     S
C5725  C5726   1.402   .     D
C5725  H6133   1.167   .     S
C5725  C987    1.405   1_556 S
C5726  C5727   1.402   .     S
C5726  H6134   1.115   .     S
C5727  C5728   1.510   .     D
C5727  C985    1.405   1_556 S
C5728  C5729   1.389   .     S
C5728  C930    1.401   1_556 S
C5729  N5731   1.401   .     D
C5729  H5735   1.150   .     S
C5730  N5732   1.400   .     D
C5730  H5736   1.045   .     S
N5731  N932    1.592   1_556 S
N5731  Co6197  1.857   .     S
N5732  Co5799  1.875   .     S
C5737  C5738   1.402   .     D
C5737  H5745   1.167   .     S
C5737  C975    1.405   1_556 S
C5738  C5739   1.402   .     S
C5738  H5746   1.115   .     S
C5739  C5740   1.510   .     D
C5739  C973    1.405   1_556 S
C5740  C5741   1.389   .     S
C5740  C942    1.401   1_556 S
C5741  N5743   1.401   .     D
C5741  H5747   1.150   .     S
C5742  N5744   1.400   .     D
C5742  H5748   1.045   .     S
N5743  N944    1.592   1_556 S
N5743  Co5898  1.857   .     S
N5744  Co5900  1.875   .     S
C5749  C5750   1.402   .     D
C5750  C5751   1.402   .     S
C5751  C5752   1.510   .     D
C5752  C5753   1.389   .     S
C5752  C5754   1.401   .     S
C5753  N5755   1.401   .     D
C5753  H5759   1.150   .     S
C5754  N5756   1.400   .     D
C5754  H5760   1.045   .     S
N5755  N5756   1.592   .     S
N5756  Co5797  1.875   .     S
H5757  C6149   1.167   .     S
H5758  C6150   1.115   .     S
C5761  C5762   1.402   .     D
C5761  H5769   1.167   .     S
C5762  C5763   1.402   .     S
C5762  H5770   1.115   .     S
C5763  C5764   1.510   .     D
C5764  C5765   1.389   .     S
C5764  C5766   1.401   .     S
C5765  N5767   1.401   .     D
C5765  H5771   1.150   .     S
C5766  N5768   1.400   .     D
C5766  H5772   1.045   .     S
N5767  N5768   1.592   .     S
N5767  Co5900  1.857   .     S
N5768  Co5898  1.875   .     S
C5773  C5774   1.402   .     D
C5774  C5775   1.402   .     S
C5775  C5776   1.510   .     D
C5776  C5777   1.389   .     S
C5777  N5779   1.401   .     D
C5777  H5783   1.150   .     S
C5778  C976    1.401   1_556 S
C5778  N5780   1.400   .     D
C5778  H5784   1.045   .     S
N5780  N979    1.592   1_556 S
N5780  Co5797  1.875   .     S
H5781  C6173   1.167   .     S
H5782  C6174   1.115   .     S
C5785  C5786   1.402   .     D
C5785  H5793   1.167   .     S
C5786  C5787   1.402   .     S
C5786  H5794   1.115   .     S
C5787  C5788   1.510   .     D
C5788  C5789   1.389   .     S
C5789  N5791   1.401   .     D
C5789  H5795   1.150   .     S
C5790  C988    1.401   1_556 S
C5790  N5792   1.400   .     D
C5790  H5796   1.045   .     S
N5791  Co5800  1.857   .     S
N5792  N991    1.592   1_556 S
N5792  Co5798  1.875   .     S
Co5799 N6155   1.857   .     S
Co5799 N6179   1.857   .     S
C5801  C5802   1.402   .     D
C5801  H6209   1.167   .     S
C5801  C5863   1.405   .     S
C5802  C5803   1.402   .     S
C5802  H6210   1.115   .     S
C5803  C5804   1.510   .     D
C5803  C5861   1.405   .     S
C5804  C5805   1.389   .     S
C5804  C5806   1.401   .     S
C5805  N5807   1.401   .     D
C5805  H5811   1.150   .     S
C5806  N5808   1.400   .     D
C5806  H5812   1.045   .     S
N5807  N5808   1.592   .     S
N5807  Co6297  1.857   .     S
N5808  Co5899  1.875   .     S
C5813  C5814   1.402   .     D
C5813  H5821   1.167   .     S
C5813  C5851   1.405   .     S
C5814  C5815   1.402   .     S
C5814  H5822   1.115   .     S
C5815  C5816   1.510   .     D
C5815  C5849   1.405   .     S
C5816  C5817   1.389   .     S
C5816  C5818   1.401   .     S
C5817  N5819   1.401   .     D
C5817  H5823   1.150   .     S
C5818  N5820   1.400   .     D
C5818  H5824   1.045   .     S
N5819  N5820   1.592   .     S
N5819  Co5898  1.857   .     S
N5820  Co5900  1.875   .     S
C5825  C5826   1.402   .     D
C5825  H6233   1.167   .     S
C5825  C1087   1.405   1_556 S
C5826  C5827   1.402   .     S
C5826  H6234   1.115   .     S
C5827  C5828   1.510   .     D
C5827  C1085   1.405   1_556 S
C5828  C5829   1.389   .     S
C5828  C1030   1.401   1_556 S
C5829  N5831   1.401   .     D
C5829  H5835   1.150   .     S
C5830  N5832   1.400   .     D
C5830  H5836   1.045   .     S
N5831  N1032   1.592   1_556 S
N5831  Co6297  1.857   .     S
N5832  Co5899  1.875   .     S
C5837  C5838   1.402   .     D
C5837  H5845   1.167   .     S
C5837  C1075   1.405   1_556 S
C5838  C5839   1.402   .     S
C5838  H5846   1.115   .     S
C5839  C5840   1.510   .     D
C5839  C1073   1.405   1_556 S
C5840  C5841   1.389   .     S
C5840  C1042   1.401   1_556 S
C5841  N5843   1.401   .     D
C5841  H5847   1.150   .     S
C5842  N5844   1.400   .     D
C5842  H5848   1.045   .     S
N5843  N1044   1.592   1_556 S
N5843  Co5998  1.857   .     S
N5844  Co6000  1.875   .     S
C5849  C5850   1.402   .     D
C5850  C5851   1.402   .     S
C5851  C5852   1.510   .     D
C5852  C5853   1.389   .     S
C5852  C5854   1.401   .     S
C5853  N5855   1.401   .     D
C5853  H5859   1.150   .     S
C5854  N5856   1.400   .     D
C5854  H5860   1.045   .     S
N5855  N5856   1.592   .     S
N5856  Co5897  1.875   .     S
H5857  C6249   1.167   .     S
H5858  C6250   1.115   .     S
C5861  C5862   1.402   .     D
C5861  H5869   1.167   .     S
C5862  C5863   1.402   .     S
C5862  H5870   1.115   .     S
C5863  C5864   1.510   .     D
C5864  C5865   1.389   .     S
C5864  C5866   1.401   .     S
C5865  N5867   1.401   .     D
C5865  H5871   1.150   .     S
C5866  N5868   1.400   .     D
C5866  H5872   1.045   .     S
N5867  N5868   1.592   .     S
N5867  Co6000  1.857   .     S
N5868  Co5998  1.875   .     S
C5873  C5874   1.402   .     D
C5874  C5875   1.402   .     S
C5875  C5876   1.510   .     D
C5876  C5877   1.389   .     S
C5877  N5879   1.401   .     D
C5877  H5883   1.150   .     S
C5878  C1076   1.401   1_556 S
C5878  N5880   1.400   .     D
C5878  H5884   1.045   .     S
N5880  N1079   1.592   1_556 S
N5880  Co5897  1.875   .     S
H5881  C6273   1.167   .     S
H5882  C6274   1.115   .     S
C5885  C5886   1.402   .     D
C5885  H5893   1.167   .     S
C5886  C5887   1.402   .     S
C5886  H5894   1.115   .     S
C5887  C5888   1.510   .     D
C5888  C5889   1.389   .     S
C5889  N5891   1.401   .     D
C5889  H5895   1.150   .     S
C5890  C1088   1.401   1_556 S
C5890  N5892   1.400   .     D
C5890  H5896   1.045   .     S
N5891  Co5900  1.857   .     S
N5892  N1091   1.592   1_556 S
N5892  Co5898  1.875   .     S
Co5899 N6255   1.857   .     S
Co5899 N6279   1.857   .     S
C5901  C5902   1.402   .     D
C5901  H6309   1.167   .     S
C5901  C5963   1.405   .     S
C5902  C5903   1.402   .     S
C5902  H6310   1.115   .     S
C5903  C5904   1.510   .     D
C5903  C5961   1.405   .     S
C5904  C5905   1.389   .     S
C5904  C5906   1.401   .     S
C5905  N5907   1.401   .     D
C5905  H5911   1.150   .     S
C5906  N5908   1.400   .     D
C5906  H5912   1.045   .     S
N5907  N5908   1.592   .     S
N5907  Co6397  1.857   .     S
N5908  Co5999  1.875   .     S
C5913  C5914   1.402   .     D
C5913  H5921   1.167   .     S
C5913  C5951   1.405   .     S
C5914  C5915   1.402   .     S
C5914  H5922   1.115   .     S
C5915  C5916   1.510   .     D
C5915  C5949   1.405   .     S
C5916  C5917   1.389   .     S
C5916  C5918   1.401   .     S
C5917  N5919   1.401   .     D
C5917  H5923   1.150   .     S
C5918  N5920   1.400   .     D
C5918  H5924   1.045   .     S
N5919  N5920   1.592   .     S
N5919  Co5998  1.857   .     S
N5920  Co6000  1.875   .     S
C5925  C5926   1.402   .     D
C5925  H6333   1.167   .     S
C5925  C1187   1.405   1_556 S
C5926  C5927   1.402   .     S
C5926  H6334   1.115   .     S
C5927  C5928   1.510   .     D
C5927  C1185   1.405   1_556 S
C5928  C5929   1.389   .     S
C5928  C1130   1.401   1_556 S
C5929  N5931   1.401   .     D
C5929  H5935   1.150   .     S
C5930  N5932   1.400   .     D
C5930  H5936   1.045   .     S
N5931  N1132   1.592   1_556 S
N5931  Co6397  1.857   .     S
N5932  Co5999  1.875   .     S
C5937  C5938   1.402   .     D
C5937  H5945   1.167   .     S
C5937  C1175   1.405   1_556 S
C5938  C5939   1.402   .     S
C5938  H5946   1.115   .     S
C5939  C5940   1.510   .     D
C5939  C1173   1.405   1_556 S
C5940  C5941   1.389   .     S
C5940  C1142   1.401   1_556 S
C5941  N5943   1.401   .     D
C5941  H5947   1.150   .     S
C5942  N5944   1.400   .     D
C5942  H5948   1.045   .     S
N5943  N1144   1.592   1_556 S
N5943  Co5698  1.857   1_655 S
N5944  Co5700  1.875   1_655 S
C5949  C5950   1.402   .     D
C5950  C5951   1.402   .     S
C5951  C5952   1.510   .     D
C5952  C5953   1.389   .     S
C5952  C5954   1.401   .     S
C5953  N5955   1.401   .     D
C5953  H5959   1.150   .     S
C5954  N5956   1.400   .     D
C5954  H5960   1.045   .     S
N5955  N5956   1.592   .     S
N5956  Co5997  1.875   .     S
H5957  C6349   1.167   .     S
H5958  C6350   1.115   .     S
C5961  C5962   1.402   .     D
C5961  H5969   1.167   .     S
C5962  C5963   1.402   .     S
C5962  H5970   1.115   .     S
C5963  C5964   1.510   .     D
C5964  C5965   1.389   .     S
C5964  C5966   1.401   .     S
C5965  N5967   1.401   .     D
C5965  H5971   1.150   .     S
C5966  N5968   1.400   .     D
C5966  H5972   1.045   .     S
N5967  N5968   1.592   .     S
N5967  Co5700  1.857   1_655 S
N5968  Co5698  1.875   1_655 S
C5973  C5974   1.402   .     D
C5974  C5975   1.402   .     S
C5975  C5976   1.510   .     D
C5976  C5977   1.389   .     S
C5977  N5979   1.401   .     D
C5977  H5983   1.150   .     S
C5978  C1176   1.401   1_556 S
C5978  N5980   1.400   .     D
C5978  H5984   1.045   .     S
N5980  N1179   1.592   1_556 S
N5980  Co5997  1.875   .     S
H5981  C6373   1.167   .     S
H5982  C6374   1.115   .     S
C5985  C5986   1.402   .     D
C5985  H5993   1.167   .     S
C5986  C5987   1.402   .     S
C5986  H5994   1.115   .     S
C5987  C5988   1.510   .     D
C5988  C5989   1.389   .     S
C5989  N5991   1.401   .     D
C5989  H5995   1.150   .     S
C5990  C1188   1.401   1_556 S
C5990  N5992   1.400   .     D
C5990  H5996   1.045   .     S
N5991  Co6000  1.857   .     S
N5992  N1191   1.592   1_556 S
N5992  Co5998  1.875   .     S
Co5999 N6355   1.857   .     S
Co5999 N6379   1.857   .     S
C6001  C6002   1.402   .     D
C6001  H4809   1.167   1_565 S
C6001  C6063   1.405   .     S
C6002  C6003   1.402   .     S
C6002  H4810   1.115   1_565 S
C6003  C6004   1.510   .     D
C6003  C6061   1.405   .     S
C6004  C6005   1.389   .     S
C6004  C6006   1.401   .     S
C6005  N6007   1.401   .     D
C6005  H6011   1.150   .     S
C6006  N6008   1.400   .     D
C6006  H6012   1.045   .     S
N6007  N6008   1.592   .     S
N6007  Co4897  1.857   1_565 S
N6008  Co6099  1.875   .     S
C6013  C6014   1.402   .     D
C6013  H6021   1.167   .     S
C6013  C6051   1.405   .     S
C6014  C6015   1.402   .     S
C6014  H6022   1.115   .     S
C6015  C6016   1.510   .     D
C6015  C6049   1.405   .     S
C6016  C6017   1.389   .     S
C6016  C6018   1.401   .     S
C6017  N6019   1.401   .     D
C6017  H6023   1.150   .     S
C6018  N6020   1.400   .     D
C6018  H6024   1.045   .     S
N6019  N6020   1.592   .     S
N6019  Co6098  1.857   .     S
N6020  Co6100  1.875   .     S
C6025  C6026   1.402   .     D
C6025  H4833   1.167   1_565 S
C6025  C1287   1.405   1_556 S
C6026  C6027   1.402   .     S
C6026  H4834   1.115   1_565 S
C6027  C6028   1.510   .     D
C6027  C1285   1.405   1_556 S
C6028  C6029   1.389   .     S
C6028  C1230   1.401   1_556 S
C6029  N6031   1.401   .     D
C6029  H6035   1.150   .     S
C6030  N6032   1.400   .     D
C6030  H6036   1.045   .     S
N6031  N1232   1.592   1_556 S
N6031  Co4897  1.857   1_565 S
N6032  Co6099  1.875   .     S
C6037  C6038   1.402   .     D
C6037  H6045   1.167   .     S
C6037  C1275   1.405   1_556 S
C6038  C6039   1.402   .     S
C6038  H6046   1.115   .     S
C6039  C6040   1.510   .     D
C6039  C1273   1.405   1_556 S
C6040  C6041   1.389   .     S
C6040  C1242   1.401   1_556 S
C6041  N6043   1.401   .     D
C6041  H6047   1.150   .     S
C6042  N6044   1.400   .     D
C6042  H6048   1.045   .     S
N6043  N1244   1.592   1_556 S
N6043  Co6198  1.857   .     S
N6044  Co6200  1.875   .     S
C6049  C6050   1.402   .     D
C6050  C6051   1.402   .     S
C6051  C6052   1.510   .     D
C6052  C6053   1.389   .     S
C6052  C6054   1.401   .     S
C6053  N6055   1.401   .     D
C6053  H6059   1.150   .     S
C6054  N6056   1.400   .     D
C6054  H6060   1.045   .     S
N6055  N6056   1.592   .     S
N6056  Co6097  1.875   .     S
H6057  C4849   1.167   1_565 S
H6058  C4850   1.115   1_565 S
C6061  C6062   1.402   .     D
C6061  H6069   1.167   .     S
C6062  C6063   1.402   .     S
C6062  H6070   1.115   .     S
C6063  C6064   1.510   .     D
C6064  C6065   1.389   .     S
C6064  C6066   1.401   .     S
C6065  N6067   1.401   .     D
C6065  H6071   1.150   .     S
C6066  N6068   1.400   .     D
C6066  H6072   1.045   .     S
N6067  N6068   1.592   .     S
N6067  Co6200  1.857   .     S
N6068  Co6198  1.875   .     S
C6073  C6074   1.402   .     D
C6074  C6075   1.402   .     S
C6075  C6076   1.510   .     D
C6076  C6077   1.389   .     S
C6077  N6079   1.401   .     D
C6077  H6083   1.150   .     S
C6078  C1276   1.401   1_556 S
C6078  N6080   1.400   .     D
C6078  H6084   1.045   .     S
N6080  N1279   1.592   1_556 S
N6080  Co6097  1.875   .     S
H6081  C4873   1.167   1_565 S
H6082  C4874   1.115   1_565 S
C6085  C6086   1.402   .     D
C6085  H6093   1.167   .     S
C6086  C6087   1.402   .     S
C6086  H6094   1.115   .     S
C6087  C6088   1.510   .     D
C6088  C6089   1.389   .     S
C6089  N6091   1.401   .     D
C6089  H6095   1.150   .     S
C6090  C1288   1.401   1_556 S
C6090  N6092   1.400   .     D
C6090  H6096   1.045   .     S
N6091  Co6100  1.857   .     S
N6092  N1291   1.592   1_556 S
N6092  Co6098  1.875   .     S
Co6098 N6343   1.857   1_455 S
Co6098 N6368   1.875   1_455 S
Co6099 N4855   1.857   1_565 S
Co6099 N4879   1.857   1_565 S
Co6100 N6367   1.857   1_455 S
Co6100 N6344   1.875   1_455 S
C6101  C6102   1.402   .     D
C6101  H4909   1.167   1_565 S
C6101  C6163   1.405   .     S
C6102  C6103   1.402   .     S
C6102  H4910   1.115   1_565 S
C6103  C6104   1.510   .     D
C6103  C6161   1.405   .     S
C6104  C6105   1.389   .     S
C6104  C6106   1.401   .     S
C6105  N6107   1.401   .     D
C6105  H6111   1.150   .     S
C6106  N6108   1.400   .     D
C6106  H6112   1.045   .     S
N6107  N6108   1.592   .     S
N6107  Co4997  1.857   1_565 S
N6108  Co6199  1.875   .     S
C6113  C6114   1.402   .     D
C6113  H6121   1.167   .     S
C6113  C6151   1.405   .     S
C6114  C6115   1.402   .     S
C6114  H6122   1.115   .     S
C6115  C6116   1.510   .     D
C6115  C6149   1.405   .     S
C6116  C6117   1.389   .     S
C6116  C6118   1.401   .     S
C6117  N6119   1.401   .     D
C6117  H6123   1.150   .     S
C6118  N6120   1.400   .     D
C6118  H6124   1.045   .     S
N6119  N6120   1.592   .     S
N6119  Co6198  1.857   .     S
N6120  Co6200  1.875   .     S
C6125  C6126   1.402   .     D
C6125  H4933   1.167   1_565 S
C6125  C1387   1.405   1_556 S
C6126  C6127   1.402   .     S
C6126  H4934   1.115   1_565 S
C6127  C6128   1.510   .     D
C6127  C1385   1.405   1_556 S
C6128  C6129   1.389   .     S
C6128  C1330   1.401   1_556 S
C6129  N6131   1.401   .     D
C6129  H6135   1.150   .     S
C6130  N6132   1.400   .     D
C6130  H6136   1.045   .     S
N6131  N1332   1.592   1_556 S
N6131  Co4997  1.857   1_565 S
N6132  Co6199  1.875   .     S
C6137  C6138   1.402   .     D
C6137  H6145   1.167   .     S
C6137  C1375   1.405   1_556 S
C6138  C6139   1.402   .     S
C6138  H6146   1.115   .     S
C6139  C6140   1.510   .     D
C6139  C1373   1.405   1_556 S
C6140  C6141   1.389   .     S
C6140  C1342   1.401   1_556 S
C6141  N6143   1.401   .     D
C6141  H6147   1.150   .     S
C6142  N6144   1.400   .     D
C6142  H6148   1.045   .     S
N6143  N1344   1.592   1_556 S
N6143  Co6298  1.857   .     S
N6144  Co6300  1.875   .     S
C6149  C6150   1.402   .     D
C6150  C6151   1.402   .     S
C6151  C6152   1.510   .     D
C6152  C6153   1.389   .     S
C6152  C6154   1.401   .     S
C6153  N6155   1.401   .     D
C6153  H6159   1.150   .     S
C6154  N6156   1.400   .     D
C6154  H6160   1.045   .     S
N6155  N6156   1.592   .     S
N6156  Co6197  1.875   .     S
H6157  C4949   1.167   1_565 S
H6158  C4950   1.115   1_565 S
C6161  C6162   1.402   .     D
C6161  H6169   1.167   .     S
C6162  C6163   1.402   .     S
C6162  H6170   1.115   .     S
C6163  C6164   1.510   .     D
C6164  C6165   1.389   .     S
C6164  C6166   1.401   .     S
C6165  N6167   1.401   .     D
C6165  H6171   1.150   .     S
C6166  N6168   1.400   .     D
C6166  H6172   1.045   .     S
N6167  N6168   1.592   .     S
N6167  Co6300  1.857   .     S
N6168  Co6298  1.875   .     S
C6173  C6174   1.402   .     D
C6174  C6175   1.402   .     S
C6175  C6176   1.510   .     D
C6176  C6177   1.389   .     S
C6177  N6179   1.401   .     D
C6177  H6183   1.150   .     S
C6178  C1376   1.401   1_556 S
C6178  N6180   1.400   .     D
C6178  H6184   1.045   .     S
N6180  N1379   1.592   1_556 S
N6180  Co6197  1.875   .     S
H6181  C4973   1.167   1_565 S
H6182  C4974   1.115   1_565 S
C6185  C6186   1.402   .     D
C6185  H6193   1.167   .     S
C6186  C6187   1.402   .     S
C6186  H6194   1.115   .     S
C6187  C6188   1.510   .     D
C6188  C6189   1.389   .     S
C6189  N6191   1.401   .     D
C6189  H6195   1.150   .     S
C6190  C1388   1.401   1_556 S
C6190  N6192   1.400   .     D
C6190  H6196   1.045   .     S
N6191  Co6200  1.857   .     S
N6192  N1391   1.592   1_556 S
N6192  Co6198  1.875   .     S
Co6199 N4955   1.857   1_565 S
Co6199 N4979   1.857   1_565 S
C6201  C6202   1.402   .     D
C6201  H5009   1.167   1_565 S
C6201  C6263   1.405   .     S
C6202  C6203   1.402   .     S
C6202  H5010   1.115   1_565 S
C6203  C6204   1.510   .     D
C6203  C6261   1.405   .     S
C6204  C6205   1.389   .     S
C6204  C6206   1.401   .     S
C6205  N6207   1.401   .     D
C6205  H6211   1.150   .     S
C6206  N6208   1.400   .     D
C6206  H6212   1.045   .     S
N6207  N6208   1.592   .     S
N6207  Co5097  1.857   1_565 S
N6208  Co6299  1.875   .     S
C6213  C6214   1.402   .     D
C6213  H6221   1.167   .     S
C6213  C6251   1.405   .     S
C6214  C6215   1.402   .     S
C6214  H6222   1.115   .     S
C6215  C6216   1.510   .     D
C6215  C6249   1.405   .     S
C6216  C6217   1.389   .     S
C6216  C6218   1.401   .     S
C6217  N6219   1.401   .     D
C6217  H6223   1.150   .     S
C6218  N6220   1.400   .     D
C6218  H6224   1.045   .     S
N6219  N6220   1.592   .     S
N6219  Co6298  1.857   .     S
N6220  Co6300  1.875   .     S
C6225  C6226   1.402   .     D
C6225  H5033   1.167   1_565 S
C6225  C1487   1.405   1_556 S
C6226  C6227   1.402   .     S
C6226  H5034   1.115   1_565 S
C6227  C6228   1.510   .     D
C6227  C1485   1.405   1_556 S
C6228  C6229   1.389   .     S
C6228  C1430   1.401   1_556 S
C6229  N6231   1.401   .     D
C6229  H6235   1.150   .     S
C6230  N6232   1.400   .     D
C6230  H6236   1.045   .     S
N6231  N1432   1.592   1_556 S
N6231  Co5097  1.857   1_565 S
N6232  Co6299  1.875   .     S
C6237  C6238   1.402   .     D
C6237  H6245   1.167   .     S
C6237  C1475   1.405   1_556 S
C6238  C6239   1.402   .     S
C6238  H6246   1.115   .     S
C6239  C6240   1.510   .     D
C6239  C1473   1.405   1_556 S
C6240  C6241   1.389   .     S
C6240  C1442   1.401   1_556 S
C6241  N6243   1.401   .     D
C6241  H6247   1.150   .     S
C6242  N6244   1.400   .     D
C6242  H6248   1.045   .     S
N6243  N1444   1.592   1_556 S
N6243  Co6398  1.857   .     S
N6244  Co6400  1.875   .     S
C6249  C6250   1.402   .     D
C6250  C6251   1.402   .     S
C6251  C6252   1.510   .     D
C6252  C6253   1.389   .     S
C6252  C6254   1.401   .     S
C6253  N6255   1.401   .     D
C6253  H6259   1.150   .     S
C6254  N6256   1.400   .     D
C6254  H6260   1.045   .     S
N6255  N6256   1.592   .     S
N6256  Co6297  1.875   .     S
H6257  C5049   1.167   1_565 S
H6258  C5050   1.115   1_565 S
C6261  C6262   1.402   .     D
C6261  H6269   1.167   .     S
C6262  C6263   1.402   .     S
C6262  H6270   1.115   .     S
C6263  C6264   1.510   .     D
C6264  C6265   1.389   .     S
C6264  C6266   1.401   .     S
C6265  N6267   1.401   .     D
C6265  H6271   1.150   .     S
C6266  N6268   1.400   .     D
C6266  H6272   1.045   .     S
N6267  N6268   1.592   .     S
N6267  Co6400  1.857   .     S
N6268  Co6398  1.875   .     S
C6273  C6274   1.402   .     D
C6274  C6275   1.402   .     S
C6275  C6276   1.510   .     D
C6276  C6277   1.389   .     S
C6277  N6279   1.401   .     D
C6277  H6283   1.150   .     S
C6278  C1476   1.401   1_556 S
C6278  N6280   1.400   .     D
C6278  H6284   1.045   .     S
N6280  N1479   1.592   1_556 S
N6280  Co6297  1.875   .     S
H6281  C5073   1.167   1_565 S
H6282  C5074   1.115   1_565 S
C6285  C6286   1.402   .     D
C6285  H6293   1.167   .     S
C6286  C6287   1.402   .     S
C6286  H6294   1.115   .     S
C6287  C6288   1.510   .     D
C6288  C6289   1.389   .     S
C6289  N6291   1.401   .     D
C6289  H6295   1.150   .     S
C6290  C1488   1.401   1_556 S
C6290  N6292   1.400   .     D
C6290  H6296   1.045   .     S
N6291  Co6300  1.857   .     S
N6292  N1491   1.592   1_556 S
N6292  Co6298  1.875   .     S
Co6299 N5055   1.857   1_565 S
Co6299 N5079   1.857   1_565 S
C6301  C6302   1.402   .     D
C6301  H5109   1.167   1_565 S
C6301  C6363   1.405   .     S
C6302  C6303   1.402   .     S
C6302  H5110   1.115   1_565 S
C6303  C6304   1.510   .     D
C6303  C6361   1.405   .     S
C6304  C6305   1.389   .     S
C6304  C6306   1.401   .     S
C6305  N6307   1.401   .     D
C6305  H6311   1.150   .     S
C6306  N6308   1.400   .     D
C6306  H6312   1.045   .     S
N6307  N6308   1.592   .     S
N6307  Co5197  1.857   1_565 S
N6308  Co6399  1.875   .     S
C6313  C6314   1.402   .     D
C6313  H6321   1.167   .     S
C6313  C6351   1.405   .     S
C6314  C6315   1.402   .     S
C6314  H6322   1.115   .     S
C6315  C6316   1.510   .     D
C6315  C6349   1.405   .     S
C6316  C6317   1.389   .     S
C6316  C6318   1.401   .     S
C6317  N6319   1.401   .     D
C6317  H6323   1.150   .     S
C6318  N6320   1.400   .     D
C6318  H6324   1.045   .     S
N6319  N6320   1.592   .     S
N6319  Co6398  1.857   .     S
N6320  Co6400  1.875   .     S
C6325  C6326   1.402   .     D
C6325  H5133   1.167   1_565 S
C6325  C1587   1.405   1_556 S
C6326  C6327   1.402   .     S
C6326  H5134   1.115   1_565 S
C6327  C6328   1.510   .     D
C6327  C1585   1.405   1_556 S
C6328  C6329   1.389   .     S
C6328  C1530   1.401   1_556 S
C6329  N6331   1.401   .     D
C6329  H6335   1.150   .     S
C6330  N6332   1.400   .     D
C6330  H6336   1.045   .     S
N6331  N1532   1.592   1_556 S
N6331  Co5197  1.857   1_565 S
N6332  Co6399  1.875   .     S
C6337  C6338   1.402   .     D
C6337  H6345   1.167   .     S
C6337  C1575   1.405   1_556 S
C6338  C6339   1.402   .     S
C6338  H6346   1.115   .     S
C6339  C6340   1.510   .     D
C6339  C1573   1.405   1_556 S
C6340  C6341   1.389   .     S
C6340  C1542   1.401   1_556 S
C6341  N6343   1.401   .     D
C6341  H6347   1.150   .     S
C6342  N6344   1.400   .     D
C6342  H6348   1.045   .     S
N6343  N1544   1.592   1_556 S
N6343  Co6098  1.857   1_655 S
N6344  Co6100  1.875   1_655 S
C6349  C6350   1.402   .     D
C6350  C6351   1.402   .     S
C6351  C6352   1.510   .     D
C6352  C6353   1.389   .     S
C6352  C6354   1.401   .     S
C6353  N6355   1.401   .     D
C6353  H6359   1.150   .     S
C6354  N6356   1.400   .     D
C6354  H6360   1.045   .     S
N6355  N6356   1.592   .     S
N6356  Co6397  1.875   .     S
H6357  C5149   1.167   1_565 S
H6358  C5150   1.115   1_565 S
C6361  C6362   1.402   .     D
C6361  H6369   1.167   .     S
C6362  C6363   1.402   .     S
C6362  H6370   1.115   .     S
C6363  C6364   1.510   .     D
C6364  C6365   1.389   .     S
C6364  C6366   1.401   .     S
C6365  N6367   1.401   .     D
C6365  H6371   1.150   .     S
C6366  N6368   1.400   .     D
C6366  H6372   1.045   .     S
N6367  N6368   1.592   .     S
N6367  Co6100  1.857   1_655 S
N6368  Co6098  1.875   1_655 S
C6373  C6374   1.402   .     D
C6374  C6375   1.402   .     S
C6375  C6376   1.510   .     D
C6376  C6377   1.389   .     S
C6377  N6379   1.401   .     D
C6377  H6383   1.150   .     S
C6378  C1576   1.401   1_556 S
C6378  N6380   1.400   .     D
C6378  H6384   1.045   .     S
N6380  N1579   1.592   1_556 S
N6380  Co6397  1.875   .     S
H6381  C5173   1.167   1_565 S
H6382  C5174   1.115   1_565 S
C6385  C6386   1.402   .     D
C6385  H6393   1.167   .     S
C6386  C6387   1.402   .     S
C6386  H6394   1.115   .     S
C6387  C6388   1.510   .     D
C6388  C6389   1.389   .     S
C6389  N6391   1.401   .     D
C6389  H6395   1.150   .     S
C6390  C1588   1.401   1_556 S
C6390  N6392   1.400   .     D
C6390  H6396   1.045   .     S
N6391  Co6400  1.857   .     S
N6392  N1591   1.592   1_556 S
N6392  Co6398  1.875   .     S
Co6399 N5155   1.857   1_565 S
Co6399 N5179   1.857   1_565 S
