
#######################################################################
#
#                 Cambridge Crystallographic Data Centre
#                                CCDC 
#
#######################################################################
#
# If this CIF has been generated from an entry in the Cambridge 
# Structural Database, then it will include bibliographic, chemical, 
# crystal, experimental, refinement or atomic coordinate data resulting 
# from the CCDC's data processing and validation procedures.
#
#######################################################################

data_Cod4bdp
_symmetry_cell_setting           monoclinic
_symmetry_space_group_name_H-M   'C 2/c'
_symmetry_Int_Tables_number      15
_space_group_name_Hall           '-C 2yn'
loop_
_symmetry_equiv_pos_site_id
_symmetry_equiv_pos_as_xyz
1 -x,-y,-z
2 -x,y,1/2-z
3 x,-y,1/2+z
4 x,y,z
5 1/2-x,1/2-y,-z
6 1/2-x,1/2+y,1/2-z
7 1/2+x,1/2-y,1/2+z
8 1/2+x,1/2+y,z
_cell_length_a                   24.6870(90)
_cell_length_b                   6.6675(10)
_cell_length_c                   7.0913(26)
_cell_angle_alpha                90
_cell_angle_beta                 92.409(47)
_cell_angle_gamma                90
_cell_volume                     1166.2
loop_
_atom_site_label
_atom_site_type_symbol
_atom_site_fract_x
_atom_site_fract_y
_atom_site_fract_z
Co Co 0.5 1.0344(30) 0.75
C1 C 0.7808(4) 0.882(1) 0.598(1)
C2 C 0.7244(4) 0.879(1) 0.614(1)
C3 C 0.6894(4) 0.746(1) 0.516(1)
C4 C 0.6292(4) 0.787(1) 0.505(1)
C5 C 0.6000(4) 0.886(1) 0.640(1)
C6 C 0.5920(4) 0.712(1) 0.368(1)
N1 N 0.5439(4) 0.880(1) 0.601(1)
N2 N 0.5392(4) 0.778(1) 0.398(1)
D1 D 0.8094 1.0026 0.668
D2 D 0.7103 1.0124 0.693
H1 H 0.6224 0.966 0.764
H2 H 0.6074 0.609 0.273
C1 C 0.7192(4) 0.618(1) 0.402(1)
C2 C 0.7756(4) 0.621(1) 0.386(1)
C3 C 0.8106(4) 0.754(1) 0.484(1)
C4 C 0.8708(4) 0.713(1) 0.495(1)
C5 C 0.9000(4) 0.614(1) 0.360(1)
C6 C 0.9080(4) 0.788(1) 0.632(1)
N1 N 0.9561(4) 0.620(1) 0.399(1)
N2 N 0.9608(4) 0.722(1) 0.602(1)
D1 D 0.6906 0.4974 0.332
D2 D 0.7897 0.4876 0.307
H1 H 0.8776 0.534 0.236
H2 H 0.8926 0.891 0.727
Co Co 0.5 0.9656(30) 0.25
Co Co 1.0 0.4656(30) 0.25
Co Co 1.0 0.5344(30) 0.75
N1 N 0.4561(4) 0.880(1) 0.899(1)
N2 N 0.4608(4) 1.222(1) 0.602(1)
N2 N 0.5392(4) 1.222(1) 0.898(1)
Co Co 0.5 -0.0344(30) 0.25
C1 C 0.7808(4) 0.118(1) 0.098(1)
C2 C 0.7244(4) 0.121(1) 0.114(1)
C3 C 0.6894(4) 0.254(1) 0.016(1)
C4 C 0.6292(4) 0.213(1) 0.005(1)
C5 C 0.6000(4) 0.114(1) 0.140(1)
C6 C 0.5920(4) 0.288(1) -0.132(1)
N1 N 0.5439(4) 0.120(1) 0.101(1)
N2 N 0.5392(4) 0.222(1) -0.102(1)
D1 D 0.8094 -0.0026 0.168
D2 D 0.7103 -0.0124 0.193
H1 H 0.6224 0.034 0.264
H2 H 0.6074 0.391 -0.227
C1 C 0.7192(4) 0.382(1) -0.098(1)
C2 C 0.7756(4) 0.379(1) -0.114(1)
C3 C 0.8106(4) 0.246(1) -0.016(1)
C4 C 0.8708(4) 0.287(1) -0.005(1)
C5 C 0.9000(4) 0.386(1) -0.140(1)
C6 C 0.9080(4) 0.212(1) 0.132(1)
N1 N 0.9561(4) 0.380(1) -0.101(1)
N2 N 0.9608(4) 0.278(1) 0.102(1)
D1 D 0.6906 0.5026 -0.168
D2 D 0.7897 0.5124 -0.193
H1 H 0.8776 0.466 -0.264
H2 H 0.8926 0.109 0.227
Co Co 0.5 0.0344(30) -0.25
Co Co 1.0 0.5344(30) -0.25
N1 N 0.4561(4) 0.120(1) 0.399(1)
N2 N 0.4608(4) -0.222(1) 0.102(1)
N2 N 0.5392(4) -0.222(1) 0.398(1)
C1 C 0.2192(4) 0.882(1) 0.902(1)
C2 C 0.2756(4) 0.879(1) 0.886(1)
C3 C 0.3106(4) 0.746(1) 0.984(1)
C4 C 0.3708(4) 0.787(1) 0.995(1)
C5 C 0.4000(4) 0.886(1) 0.860(1)
C6 C 0.4080(4) 0.712(1) 1.132(1)
N2 N 0.4608(4) 0.778(1) 1.102(1)
D1 D 0.1906 1.0026 0.832
D2 D 0.2897 1.0124 0.807
H1 H 0.3776 0.966 0.736
H2 H 0.3926 0.609 1.227
C1 C 0.2808(4) 0.618(1) 1.098(1)
C2 C 0.2244(4) 0.621(1) 1.114(1)
C3 C 0.1894(4) 0.754(1) 1.016(1)
C4 C 0.1292(4) 0.713(1) 1.005(1)
C5 C 0.1000(4) 0.614(1) 1.140(1)
C6 C 0.0920(4) 0.788(1) 0.868(1)
N1 N 0.0439(4) 0.620(1) 1.101(1)
N2 N 0.0392(4) 0.722(1) 0.898(1)
D1 D 0.3094 0.4974 1.168
D2 D 0.2103 0.4876 1.193
H1 H 0.1224 0.534 1.264
H2 H 0.1074 0.891 0.773
Co Co 0.5 0.9656(30) 1.25
Co Co 0.0 0.4656(30) 1.25
Co Co 0.0 0.5344(30) 0.75
C1 C 0.2192(4) 0.118(1) 0.402(1)
C2 C 0.2756(4) 0.121(1) 0.386(1)
C3 C 0.3106(4) 0.254(1) 0.484(1)
C4 C 0.3708(4) 0.213(1) 0.495(1)
C5 C 0.4000(4) 0.114(1) 0.360(1)
C6 C 0.4080(4) 0.288(1) 0.632(1)
N2 N 0.4608(4) 0.222(1) 0.602(1)
D1 D 0.1906 -0.0026 0.332
D2 D 0.2897 -0.0124 0.307
H1 H 0.3776 0.034 0.236
H2 H 0.3926 0.391 0.727
C1 C 0.2808(4) 0.382(1) 0.598(1)
C2 C 0.2244(4) 0.379(1) 0.614(1)
C3 C 0.1894(4) 0.246(1) 0.516(1)
C4 C 0.1292(4) 0.287(1) 0.505(1)
C5 C 0.1000(4) 0.386(1) 0.640(1)
C6 C 0.0920(4) 0.212(1) 0.368(1)
N1 N 0.0439(4) 0.380(1) 0.601(1)
N2 N 0.0392(4) 0.278(1) 0.398(1)
D1 D 0.3094 0.5026 0.668
D2 D 0.2103 0.5124 0.693
H1 H 0.1224 0.466 0.764
H2 H 0.1074 0.109 0.273
Co Co 0.5 0.0344(30) 0.75
Co Co 0.0 0.4656(30) 0.25
N1 N -0.0439(4) 0.380(1) 0.899(1)
N2 N -0.0392(4) 0.722(1) 0.602(1)
C1 C 0.2808(4) 0.618(1) 0.098(1)
C2 C 0.2244(4) 0.621(1) 0.114(1)
C3 C 0.1894(4) 0.754(1) 0.016(1)
C4 C 0.1292(4) 0.713(1) 0.005(1)
C5 C 0.1000(4) 0.614(1) 0.140(1)
C6 C 0.0920(4) 0.788(1) -0.132(1)
N1 N 0.0439(4) 0.620(1) 0.101(1)
N2 N 0.0392(4) 0.722(1) -0.102(1)
D1 D 0.3094 0.4974 0.168
D2 D 0.2103 0.4876 0.193
H1 H 0.1224 0.534 0.264
H2 H 0.1074 0.891 -0.227
C1 C 0.2192(4) 0.882(1) -0.098(1)
C2 C 0.2756(4) 0.879(1) -0.114(1)
C3 C 0.3106(4) 0.746(1) -0.016(1)
C4 C 0.3708(4) 0.787(1) -0.005(1)
C5 C 0.4000(4) 0.886(1) -0.140(1)
C6 C 0.4080(4) 0.712(1) 0.132(1)
N1 N 0.4561(4) 0.880(1) -0.101(1)
N2 N 0.4608(4) 0.778(1) 0.102(1)
D1 D 0.1906 1.0026 -0.168
D2 D 0.2897 1.0124 -0.193
H1 H 0.3776 0.966 -0.264
H2 H 0.3926 0.609 0.227
Co Co 0.0 0.5344(30) -0.25
Co Co 0.5 1.0344(30) -0.25
N1 N -0.0439(4) 0.620(1) 0.399(1)
N2 N -0.0392(4) 0.278(1) 0.102(1)
C1 C 0.7192(4) 0.382(1) 0.902(1)
C2 C 0.7756(4) 0.379(1) 0.886(1)
C3 C 0.8106(4) 0.246(1) 0.984(1)
C4 C 0.8708(4) 0.287(1) 0.995(1)
C5 C 0.9000(4) 0.386(1) 0.860(1)
C6 C 0.9080(4) 0.212(1) 1.132(1)
N1 N 0.9561(4) 0.380(1) 0.899(1)
N2 N 0.9608(4) 0.278(1) 1.102(1)
D1 D 0.6906 0.5026 0.832
D2 D 0.7897 0.5124 0.807
H1 H 0.8776 0.466 0.736
H2 H 0.8926 0.109 1.227
C1 C 0.7808(4) 0.118(1) 1.098(1)
C2 C 0.7244(4) 0.121(1) 1.114(1)
C3 C 0.6894(4) 0.254(1) 1.016(1)
C4 C 0.6292(4) 0.213(1) 1.005(1)
C5 C 0.6000(4) 0.114(1) 1.140(1)
C6 C 0.5920(4) 0.288(1) 0.868(1)
N1 N 0.5439(4) 0.120(1) 1.101(1)
N2 N 0.5392(4) 0.222(1) 0.898(1)
D1 D 0.8094 -0.0026 1.168
D2 D 0.7103 -0.0124 1.193
H1 H 0.6224 0.034 1.264
H2 H 0.6074 0.391 0.773
Co Co 1.0 0.4656(30) 1.25
Co Co 0.5 -0.0344(30) 1.25
N1 N 1.0439(4) 0.380(1) 0.601(1)
N2 N 1.0392(4) 0.722(1) 0.898(1)
N1 N 1.0439(4) 0.620(1) 0.101(1)
N2 N 1.0392(4) 0.278(1) 0.398(1)

#END
