data_EGELUY_4-4-4
_audit_creation_date              2020-05-22
_audit_creation_method            'Materials Studio'
_symmetry_space_group_name_H-M    'P1'
_symmetry_Int_Tables_number       1
_symmetry_cell_setting            triclinic
loop_
_symmetry_equiv_pos_as_xyz
  x,y,z
_cell_length_a                    64.9720
_cell_length_b                    26.5408
_cell_length_c                    53.9772
_cell_angle_alpha                 90.0000
_cell_angle_beta                  90.0000
_cell_angle_gamma                 90.0000
loop_
_atom_site_label
_atom_site_type_symbol
_atom_site_fract_x
_atom_site_fract_y
_atom_site_fract_z
_atom_site_U_iso_or_equiv
_atom_site_adp_type
_atom_site_occupancy
C1     C     0.05387   0.01780   0.19260   0.00000  Uiso   1.00
C2     C     0.07113   0.01780   0.17800   0.00000  Uiso   1.00
O3     O     0.01815   0.02008   0.22277   0.00000  Uiso   1.00
O4     O     0.10683   0.02008   0.14782   0.00000  Uiso   1.00
C5     C     0.07113   0.23220   0.06760   0.00000  Uiso   1.00
C6     C     0.05387   0.23220   0.05300   0.00000  Uiso   1.00
O7     O     0.10685   0.22992   0.09777   0.00000  Uiso   1.00
O8     O     0.01818   0.22992   0.02282   0.00000  Uiso   1.00
C9     C     0.19613   0.14280   0.05740   0.00000  Uiso   1.00
C10    C     0.17887   0.14280   0.07200   0.00000  Uiso   1.00
O11    O     0.23185   0.14508   0.02723   0.00000  Uiso   1.00
O12    O     0.14317   0.14508   0.10217   0.00000  Uiso   1.00
C13    C     0.17887   0.10720   0.18240   0.00000  Uiso   1.00
C14    C     0.19613   0.10720   0.19700   0.00000  Uiso   1.00
O15    O     0.14315   0.10492   0.15222   0.00000  Uiso   1.00
O16    O     0.23182   0.10492   0.22717   0.00000  Uiso   1.00
C17    C     0.19613   0.23220   0.05740   0.00000  Uiso   1.00
C18    C     0.17887   0.23220   0.07200   0.00000  Uiso   1.00
O19    O     0.23185   0.22992   0.02723   0.00000  Uiso   1.00
O20    O     0.14317   0.22992   0.10217   0.00000  Uiso   1.00
C21    C     0.17887   0.01780   0.18240   0.00000  Uiso   1.00
C22    C     0.19613   0.01780   0.19700   0.00000  Uiso   1.00
O23    O     0.14315   0.02008   0.15222   0.00000  Uiso   1.00
O24    O     0.23182   0.02008   0.22717   0.00000  Uiso   1.00
C25    C     0.05387   0.10720   0.19260   0.00000  Uiso   1.00
C26    C     0.07113   0.10720   0.17800   0.00000  Uiso   1.00
O27    O     0.01815   0.10492   0.22277   0.00000  Uiso   1.00
O28    O     0.10683   0.10492   0.14782   0.00000  Uiso   1.00
C29    C     0.07113   0.14280   0.06760   0.00000  Uiso   1.00
C30    C     0.05387   0.14280   0.05300   0.00000  Uiso   1.00
O31    O     0.10685   0.14508   0.09777   0.00000  Uiso   1.00
O32    O     0.01818   0.14508   0.02282   0.00000  Uiso   1.00
Al33   Al    0.00000   0.00000   0.00000   0.00000  Uiso   1.00
Al34   Al    0.12500   0.00000   0.12500   0.00000  Uiso   1.00
Al35   Al    0.00000   0.12500   0.00000   0.00000  Uiso   1.00
Al36   Al    0.12500   0.12500   0.12500   0.00000  Uiso   1.00
O37    O     0.24932   0.06250   0.01490   0.00000  Uiso   1.00
C38    C     0.04523   0.06250   0.19990   0.00000  Uiso   1.00
C39    C     0.07975   0.06250   0.17072   0.00000  Uiso   1.00
C40    C     0.02633   0.06250   0.21585   0.00000  Uiso   1.00
C41    C     0.09865   0.06250   0.15475   0.00000  Uiso   1.00
O42    O     0.12568   0.18750   0.13990   0.00000  Uiso   1.00
C43    C     0.07977   0.18750   0.07490   0.00000  Uiso   1.00
C44    C     0.04525   0.18750   0.04572   0.00000  Uiso   1.00
C45    C     0.09868   0.18750   0.09085   0.00000  Uiso   1.00
C46    C     0.02635   0.18750   0.02975   0.00000  Uiso   1.00
O47    O     0.00068   0.18750   0.23509   0.00000  Uiso   1.00
C48    C     0.20477   0.18750   0.05010   0.00000  Uiso   1.00
C49    C     0.17025   0.18750   0.07928   0.00000  Uiso   1.00
C50    C     0.22367   0.18750   0.03415   0.00000  Uiso   1.00
C51    C     0.15135   0.18750   0.09525   0.00000  Uiso   1.00
O52    O     0.12432   0.06250   0.11010   0.00000  Uiso   1.00
C53    C     0.17022   0.06250   0.17510   0.00000  Uiso   1.00
C54    C     0.20475   0.06250   0.20427   0.00000  Uiso   1.00
C55    C     0.15133   0.06250   0.15915   0.00000  Uiso   1.00
C56    C     0.22365   0.06250   0.22025   0.00000  Uiso   1.00
C57    C     0.30387   0.01780   0.19260   0.00000  Uiso   1.00
C58    C     0.32113   0.01780   0.17800   0.00000  Uiso   1.00
O59    O     0.26815   0.02008   0.22277   0.00000  Uiso   1.00
O60    O     0.35682   0.02008   0.14782   0.00000  Uiso   1.00
C61    C     0.32113   0.23220   0.06760   0.00000  Uiso   1.00
C62    C     0.30387   0.23220   0.05300   0.00000  Uiso   1.00
O63    O     0.35685   0.22992   0.09777   0.00000  Uiso   1.00
O64    O     0.26818   0.22992   0.02282   0.00000  Uiso   1.00
C65    C     0.44613   0.14280   0.05740   0.00000  Uiso   1.00
C66    C     0.42887   0.14280   0.07200   0.00000  Uiso   1.00
O67    O     0.48185   0.14508   0.02723   0.00000  Uiso   1.00
O68    O     0.39317   0.14508   0.10217   0.00000  Uiso   1.00
C69    C     0.42887   0.10720   0.18240   0.00000  Uiso   1.00
C70    C     0.44613   0.10720   0.19700   0.00000  Uiso   1.00
O71    O     0.39315   0.10492   0.15222   0.00000  Uiso   1.00
O72    O     0.48182   0.10492   0.22717   0.00000  Uiso   1.00
C73    C     0.44613   0.23220   0.05740   0.00000  Uiso   1.00
C74    C     0.42887   0.23220   0.07200   0.00000  Uiso   1.00
O75    O     0.48185   0.22992   0.02723   0.00000  Uiso   1.00
O76    O     0.39317   0.22992   0.10217   0.00000  Uiso   1.00
C77    C     0.42887   0.01780   0.18240   0.00000  Uiso   1.00
C78    C     0.44613   0.01780   0.19700   0.00000  Uiso   1.00
O79    O     0.39315   0.02008   0.15222   0.00000  Uiso   1.00
O80    O     0.48182   0.02008   0.22717   0.00000  Uiso   1.00
C81    C     0.30387   0.10720   0.19260   0.00000  Uiso   1.00
C82    C     0.32113   0.10720   0.17800   0.00000  Uiso   1.00
O83    O     0.26815   0.10492   0.22277   0.00000  Uiso   1.00
O84    O     0.35682   0.10492   0.14782   0.00000  Uiso   1.00
C85    C     0.32113   0.14280   0.06760   0.00000  Uiso   1.00
C86    C     0.30387   0.14280   0.05300   0.00000  Uiso   1.00
O87    O     0.35685   0.14508   0.09777   0.00000  Uiso   1.00
O88    O     0.26818   0.14508   0.02282   0.00000  Uiso   1.00
Al89   Al    0.25000   0.00000   0.00000   0.00000  Uiso   1.00
Al90   Al    0.37500   0.00000   0.12500   0.00000  Uiso   1.00
Al91   Al    0.25000   0.12500   0.00000   0.00000  Uiso   1.00
Al92   Al    0.37500   0.12500   0.12500   0.00000  Uiso   1.00
O93    O     0.49932   0.06250   0.01490   0.00000  Uiso   1.00
C94    C     0.29523   0.06250   0.19990   0.00000  Uiso   1.00
C95    C     0.32975   0.06250   0.17072   0.00000  Uiso   1.00
C96    C     0.27633   0.06250   0.21585   0.00000  Uiso   1.00
C97    C     0.34865   0.06250   0.15475   0.00000  Uiso   1.00
O98    O     0.37568   0.18750   0.13990   0.00000  Uiso   1.00
C99    C     0.32977   0.18750   0.07490   0.00000  Uiso   1.00
C100   C     0.29525   0.18750   0.04572   0.00000  Uiso   1.00
C101   C     0.34868   0.18750   0.09085   0.00000  Uiso   1.00
C102   C     0.27635   0.18750   0.02975   0.00000  Uiso   1.00
O103   O     0.25068   0.18750   0.23509   0.00000  Uiso   1.00
C104   C     0.45477   0.18750   0.05010   0.00000  Uiso   1.00
C105   C     0.42025   0.18750   0.07928   0.00000  Uiso   1.00
C106   C     0.47367   0.18750   0.03415   0.00000  Uiso   1.00
C107   C     0.40135   0.18750   0.09525   0.00000  Uiso   1.00
O108   O     0.37432   0.06250   0.11010   0.00000  Uiso   1.00
C109   C     0.42022   0.06250   0.17510   0.00000  Uiso   1.00
C110   C     0.45475   0.06250   0.20427   0.00000  Uiso   1.00
C111   C     0.40133   0.06250   0.15915   0.00000  Uiso   1.00
C112   C     0.47365   0.06250   0.22025   0.00000  Uiso   1.00
C113   C     0.55387   0.01780   0.19260   0.00000  Uiso   1.00
C114   C     0.57113   0.01780   0.17800   0.00000  Uiso   1.00
O115   O     0.51815   0.02008   0.22277   0.00000  Uiso   1.00
O116   O     0.60683   0.02008   0.14782   0.00000  Uiso   1.00
C117   C     0.57113   0.23220   0.06760   0.00000  Uiso   1.00
C118   C     0.55387   0.23220   0.05300   0.00000  Uiso   1.00
O119   O     0.60685   0.22992   0.09777   0.00000  Uiso   1.00
O120   O     0.51818   0.22992   0.02282   0.00000  Uiso   1.00
C121   C     0.69613   0.14280   0.05740   0.00000  Uiso   1.00
C122   C     0.67887   0.14280   0.07200   0.00000  Uiso   1.00
O123   O     0.73185   0.14508   0.02723   0.00000  Uiso   1.00
O124   O     0.64317   0.14508   0.10217   0.00000  Uiso   1.00
C125   C     0.67887   0.10720   0.18240   0.00000  Uiso   1.00
C126   C     0.69613   0.10720   0.19700   0.00000  Uiso   1.00
O127   O     0.64315   0.10492   0.15222   0.00000  Uiso   1.00
O128   O     0.73182   0.10492   0.22717   0.00000  Uiso   1.00
C129   C     0.69613   0.23220   0.05740   0.00000  Uiso   1.00
C130   C     0.67887   0.23220   0.07200   0.00000  Uiso   1.00
O131   O     0.73185   0.22992   0.02723   0.00000  Uiso   1.00
O132   O     0.64317   0.22992   0.10217   0.00000  Uiso   1.00
C133   C     0.67887   0.01780   0.18240   0.00000  Uiso   1.00
C134   C     0.69613   0.01780   0.19700   0.00000  Uiso   1.00
O135   O     0.64315   0.02008   0.15222   0.00000  Uiso   1.00
O136   O     0.73182   0.02008   0.22717   0.00000  Uiso   1.00
C137   C     0.55387   0.10720   0.19260   0.00000  Uiso   1.00
C138   C     0.57113   0.10720   0.17800   0.00000  Uiso   1.00
O139   O     0.51815   0.10492   0.22277   0.00000  Uiso   1.00
O140   O     0.60683   0.10492   0.14782   0.00000  Uiso   1.00
C141   C     0.57113   0.14280   0.06760   0.00000  Uiso   1.00
C142   C     0.55387   0.14280   0.05300   0.00000  Uiso   1.00
O143   O     0.60685   0.14508   0.09777   0.00000  Uiso   1.00
O144   O     0.51818   0.14508   0.02282   0.00000  Uiso   1.00
Al145  Al    0.50000   0.00000   0.00000   0.00000  Uiso   1.00
Al146  Al    0.62500   0.00000   0.12500   0.00000  Uiso   1.00
Al147  Al    0.50000   0.12500   0.00000   0.00000  Uiso   1.00
Al148  Al    0.62500   0.12500   0.12500   0.00000  Uiso   1.00
O149   O     0.74932   0.06250   0.01490   0.00000  Uiso   1.00
C150   C     0.54523   0.06250   0.19990   0.00000  Uiso   1.00
C151   C     0.57975   0.06250   0.17072   0.00000  Uiso   1.00
C152   C     0.52633   0.06250   0.21585   0.00000  Uiso   1.00
C153   C     0.59865   0.06250   0.15475   0.00000  Uiso   1.00
O154   O     0.62568   0.18750   0.13990   0.00000  Uiso   1.00
C155   C     0.57977   0.18750   0.07490   0.00000  Uiso   1.00
C156   C     0.54525   0.18750   0.04572   0.00000  Uiso   1.00
C157   C     0.59868   0.18750   0.09085   0.00000  Uiso   1.00
C158   C     0.52635   0.18750   0.02975   0.00000  Uiso   1.00
O159   O     0.50068   0.18750   0.23509   0.00000  Uiso   1.00
C160   C     0.70477   0.18750   0.05010   0.00000  Uiso   1.00
C161   C     0.67025   0.18750   0.07928   0.00000  Uiso   1.00
C162   C     0.72367   0.18750   0.03415   0.00000  Uiso   1.00
C163   C     0.65135   0.18750   0.09525   0.00000  Uiso   1.00
O164   O     0.62432   0.06250   0.11010   0.00000  Uiso   1.00
C165   C     0.67022   0.06250   0.17510   0.00000  Uiso   1.00
C166   C     0.70475   0.06250   0.20427   0.00000  Uiso   1.00
C167   C     0.65133   0.06250   0.15915   0.00000  Uiso   1.00
C168   C     0.72365   0.06250   0.22025   0.00000  Uiso   1.00
C169   C     0.80387   0.01780   0.19260   0.00000  Uiso   1.00
C170   C     0.82113   0.01780   0.17800   0.00000  Uiso   1.00
O171   O     0.76815   0.02008   0.22277   0.00000  Uiso   1.00
O172   O     0.85683   0.02008   0.14782   0.00000  Uiso   1.00
C173   C     0.82113   0.23220   0.06760   0.00000  Uiso   1.00
C174   C     0.80387   0.23220   0.05300   0.00000  Uiso   1.00
O175   O     0.85685   0.22992   0.09777   0.00000  Uiso   1.00
O176   O     0.76818   0.22992   0.02282   0.00000  Uiso   1.00
C177   C     0.94613   0.14280   0.05740   0.00000  Uiso   1.00
C178   C     0.92887   0.14280   0.07200   0.00000  Uiso   1.00
O179   O     0.98185   0.14508   0.02723   0.00000  Uiso   1.00
O180   O     0.89317   0.14508   0.10217   0.00000  Uiso   1.00
C181   C     0.92887   0.10720   0.18240   0.00000  Uiso   1.00
C182   C     0.94613   0.10720   0.19700   0.00000  Uiso   1.00
O183   O     0.89315   0.10492   0.15222   0.00000  Uiso   1.00
O184   O     0.98182   0.10492   0.22717   0.00000  Uiso   1.00
C185   C     0.94613   0.23220   0.05740   0.00000  Uiso   1.00
C186   C     0.92887   0.23220   0.07200   0.00000  Uiso   1.00
O187   O     0.98185   0.22992   0.02723   0.00000  Uiso   1.00
O188   O     0.89317   0.22992   0.10217   0.00000  Uiso   1.00
C189   C     0.92887   0.01780   0.18240   0.00000  Uiso   1.00
C190   C     0.94613   0.01780   0.19700   0.00000  Uiso   1.00
O191   O     0.89315   0.02008   0.15222   0.00000  Uiso   1.00
O192   O     0.98182   0.02008   0.22717   0.00000  Uiso   1.00
C193   C     0.80387   0.10720   0.19260   0.00000  Uiso   1.00
C194   C     0.82113   0.10720   0.17800   0.00000  Uiso   1.00
O195   O     0.76815   0.10492   0.22277   0.00000  Uiso   1.00
O196   O     0.85683   0.10492   0.14782   0.00000  Uiso   1.00
C197   C     0.82113   0.14280   0.06760   0.00000  Uiso   1.00
C198   C     0.80387   0.14280   0.05300   0.00000  Uiso   1.00
O199   O     0.85685   0.14508   0.09777   0.00000  Uiso   1.00
O200   O     0.76818   0.14508   0.02282   0.00000  Uiso   1.00
Al201  Al    0.75000   0.00000   0.00000   0.00000  Uiso   1.00
Al202  Al    0.87500   0.00000   0.12500   0.00000  Uiso   1.00
Al203  Al    0.75000   0.12500   0.00000   0.00000  Uiso   1.00
Al204  Al    0.87500   0.12500   0.12500   0.00000  Uiso   1.00
O205   O     0.99932   0.06250   0.01490   0.00000  Uiso   1.00
C206   C     0.79523   0.06250   0.19990   0.00000  Uiso   1.00
C207   C     0.82975   0.06250   0.17072   0.00000  Uiso   1.00
C208   C     0.77633   0.06250   0.21585   0.00000  Uiso   1.00
C209   C     0.84865   0.06250   0.15475   0.00000  Uiso   1.00
O210   O     0.87568   0.18750   0.13990   0.00000  Uiso   1.00
C211   C     0.82977   0.18750   0.07490   0.00000  Uiso   1.00
C212   C     0.79525   0.18750   0.04572   0.00000  Uiso   1.00
C213   C     0.84867   0.18750   0.09085   0.00000  Uiso   1.00
C214   C     0.77635   0.18750   0.02975   0.00000  Uiso   1.00
O215   O     0.75068   0.18750   0.23509   0.00000  Uiso   1.00
C216   C     0.95477   0.18750   0.05010   0.00000  Uiso   1.00
C217   C     0.92025   0.18750   0.07928   0.00000  Uiso   1.00
C218   C     0.97367   0.18750   0.03415   0.00000  Uiso   1.00
C219   C     0.90135   0.18750   0.09525   0.00000  Uiso   1.00
O220   O     0.87432   0.06250   0.11010   0.00000  Uiso   1.00
C221   C     0.92022   0.06250   0.17510   0.00000  Uiso   1.00
C222   C     0.95475   0.06250   0.20427   0.00000  Uiso   1.00
C223   C     0.90133   0.06250   0.15915   0.00000  Uiso   1.00
C224   C     0.97365   0.06250   0.22025   0.00000  Uiso   1.00
C225   C     0.05387   0.26780   0.19260   0.00000  Uiso   1.00
C226   C     0.07113   0.26780   0.17800   0.00000  Uiso   1.00
O227   O     0.01815   0.27008   0.22277   0.00000  Uiso   1.00
O228   O     0.10683   0.27008   0.14782   0.00000  Uiso   1.00
C229   C     0.07113   0.48220   0.06760   0.00000  Uiso   1.00
C230   C     0.05387   0.48220   0.05300   0.00000  Uiso   1.00
O231   O     0.10685   0.47992   0.09777   0.00000  Uiso   1.00
O232   O     0.01818   0.47992   0.02282   0.00000  Uiso   1.00
C233   C     0.19613   0.39280   0.05740   0.00000  Uiso   1.00
C234   C     0.17887   0.39280   0.07200   0.00000  Uiso   1.00
O235   O     0.23185   0.39508   0.02723   0.00000  Uiso   1.00
O236   O     0.14317   0.39508   0.10217   0.00000  Uiso   1.00
C237   C     0.17887   0.35720   0.18240   0.00000  Uiso   1.00
C238   C     0.19613   0.35720   0.19700   0.00000  Uiso   1.00
O239   O     0.14315   0.35492   0.15222   0.00000  Uiso   1.00
O240   O     0.23182   0.35492   0.22717   0.00000  Uiso   1.00
C241   C     0.19613   0.48220   0.05740   0.00000  Uiso   1.00
C242   C     0.17887   0.48220   0.07200   0.00000  Uiso   1.00
O243   O     0.23185   0.47992   0.02723   0.00000  Uiso   1.00
O244   O     0.14317   0.47992   0.10217   0.00000  Uiso   1.00
C245   C     0.17887   0.26780   0.18240   0.00000  Uiso   1.00
C246   C     0.19613   0.26780   0.19700   0.00000  Uiso   1.00
O247   O     0.14315   0.27008   0.15222   0.00000  Uiso   1.00
O248   O     0.23182   0.27008   0.22717   0.00000  Uiso   1.00
C249   C     0.05387   0.35720   0.19260   0.00000  Uiso   1.00
C250   C     0.07113   0.35720   0.17800   0.00000  Uiso   1.00
O251   O     0.01815   0.35492   0.22277   0.00000  Uiso   1.00
O252   O     0.10683   0.35492   0.14782   0.00000  Uiso   1.00
C253   C     0.07113   0.39280   0.06760   0.00000  Uiso   1.00
C254   C     0.05387   0.39280   0.05300   0.00000  Uiso   1.00
O255   O     0.10685   0.39508   0.09777   0.00000  Uiso   1.00
O256   O     0.01818   0.39508   0.02282   0.00000  Uiso   1.00
Al257  Al    0.00000   0.25000   0.00000   0.00000  Uiso   1.00
Al258  Al    0.12500   0.25000   0.12500   0.00000  Uiso   1.00
Al259  Al    0.00000   0.37500   0.00000   0.00000  Uiso   1.00
Al260  Al    0.12500   0.37500   0.12500   0.00000  Uiso   1.00
O261   O     0.24932   0.31250   0.01490   0.00000  Uiso   1.00
C262   C     0.04523   0.31250   0.19990   0.00000  Uiso   1.00
C263   C     0.07975   0.31250   0.17072   0.00000  Uiso   1.00
C264   C     0.02633   0.31250   0.21585   0.00000  Uiso   1.00
C265   C     0.09865   0.31250   0.15475   0.00000  Uiso   1.00
O266   O     0.12568   0.43750   0.13990   0.00000  Uiso   1.00
C267   C     0.07977   0.43750   0.07490   0.00000  Uiso   1.00
C268   C     0.04525   0.43750   0.04572   0.00000  Uiso   1.00
C269   C     0.09868   0.43750   0.09085   0.00000  Uiso   1.00
C270   C     0.02635   0.43750   0.02975   0.00000  Uiso   1.00
O271   O     0.00068   0.43750   0.23509   0.00000  Uiso   1.00
C272   C     0.20477   0.43750   0.05010   0.00000  Uiso   1.00
C273   C     0.17025   0.43750   0.07928   0.00000  Uiso   1.00
C274   C     0.22367   0.43750   0.03415   0.00000  Uiso   1.00
C275   C     0.15135   0.43750   0.09525   0.00000  Uiso   1.00
O276   O     0.12432   0.31250   0.11010   0.00000  Uiso   1.00
C277   C     0.17022   0.31250   0.17510   0.00000  Uiso   1.00
C278   C     0.20475   0.31250   0.20427   0.00000  Uiso   1.00
C279   C     0.15133   0.31250   0.15915   0.00000  Uiso   1.00
C280   C     0.22365   0.31250   0.22025   0.00000  Uiso   1.00
C281   C     0.30387   0.26780   0.19260   0.00000  Uiso   1.00
C282   C     0.32113   0.26780   0.17800   0.00000  Uiso   1.00
O283   O     0.26815   0.27008   0.22277   0.00000  Uiso   1.00
O284   O     0.35682   0.27008   0.14782   0.00000  Uiso   1.00
C285   C     0.32113   0.48220   0.06760   0.00000  Uiso   1.00
C286   C     0.30387   0.48220   0.05300   0.00000  Uiso   1.00
O287   O     0.35685   0.47992   0.09777   0.00000  Uiso   1.00
O288   O     0.26818   0.47992   0.02282   0.00000  Uiso   1.00
C289   C     0.44613   0.39280   0.05740   0.00000  Uiso   1.00
C290   C     0.42887   0.39280   0.07200   0.00000  Uiso   1.00
O291   O     0.48185   0.39508   0.02723   0.00000  Uiso   1.00
O292   O     0.39317   0.39508   0.10217   0.00000  Uiso   1.00
C293   C     0.42887   0.35720   0.18240   0.00000  Uiso   1.00
C294   C     0.44613   0.35720   0.19700   0.00000  Uiso   1.00
O295   O     0.39315   0.35492   0.15222   0.00000  Uiso   1.00
O296   O     0.48182   0.35492   0.22717   0.00000  Uiso   1.00
C297   C     0.44613   0.48220   0.05740   0.00000  Uiso   1.00
C298   C     0.42887   0.48220   0.07200   0.00000  Uiso   1.00
O299   O     0.48185   0.47992   0.02723   0.00000  Uiso   1.00
O300   O     0.39317   0.47992   0.10217   0.00000  Uiso   1.00
C301   C     0.42887   0.26780   0.18240   0.00000  Uiso   1.00
C302   C     0.44613   0.26780   0.19700   0.00000  Uiso   1.00
O303   O     0.39315   0.27008   0.15222   0.00000  Uiso   1.00
O304   O     0.48182   0.27008   0.22717   0.00000  Uiso   1.00
C305   C     0.30387   0.35720   0.19260   0.00000  Uiso   1.00
C306   C     0.32113   0.35720   0.17800   0.00000  Uiso   1.00
O307   O     0.26815   0.35492   0.22277   0.00000  Uiso   1.00
O308   O     0.35682   0.35492   0.14782   0.00000  Uiso   1.00
C309   C     0.32113   0.39280   0.06760   0.00000  Uiso   1.00
C310   C     0.30387   0.39280   0.05300   0.00000  Uiso   1.00
O311   O     0.35685   0.39508   0.09777   0.00000  Uiso   1.00
O312   O     0.26818   0.39508   0.02282   0.00000  Uiso   1.00
Al313  Al    0.25000   0.25000   0.00000   0.00000  Uiso   1.00
Al314  Al    0.37500   0.25000   0.12500   0.00000  Uiso   1.00
Al315  Al    0.25000   0.37500   0.00000   0.00000  Uiso   1.00
Al316  Al    0.37500   0.37500   0.12500   0.00000  Uiso   1.00
O317   O     0.49932   0.31250   0.01490   0.00000  Uiso   1.00
C318   C     0.29523   0.31250   0.19990   0.00000  Uiso   1.00
C319   C     0.32975   0.31250   0.17072   0.00000  Uiso   1.00
C320   C     0.27633   0.31250   0.21585   0.00000  Uiso   1.00
C321   C     0.34865   0.31250   0.15475   0.00000  Uiso   1.00
O322   O     0.37568   0.43750   0.13990   0.00000  Uiso   1.00
C323   C     0.32977   0.43750   0.07490   0.00000  Uiso   1.00
C324   C     0.29525   0.43750   0.04572   0.00000  Uiso   1.00
C325   C     0.34868   0.43750   0.09085   0.00000  Uiso   1.00
C326   C     0.27635   0.43750   0.02975   0.00000  Uiso   1.00
O327   O     0.25068   0.43750   0.23509   0.00000  Uiso   1.00
C328   C     0.45477   0.43750   0.05010   0.00000  Uiso   1.00
C329   C     0.42025   0.43750   0.07928   0.00000  Uiso   1.00
C330   C     0.47367   0.43750   0.03415   0.00000  Uiso   1.00
C331   C     0.40135   0.43750   0.09525   0.00000  Uiso   1.00
O332   O     0.37432   0.31250   0.11010   0.00000  Uiso   1.00
C333   C     0.42022   0.31250   0.17510   0.00000  Uiso   1.00
C334   C     0.45475   0.31250   0.20427   0.00000  Uiso   1.00
C335   C     0.40133   0.31250   0.15915   0.00000  Uiso   1.00
C336   C     0.47365   0.31250   0.22025   0.00000  Uiso   1.00
C337   C     0.55387   0.26780   0.19260   0.00000  Uiso   1.00
C338   C     0.57113   0.26780   0.17800   0.00000  Uiso   1.00
O339   O     0.51815   0.27008   0.22277   0.00000  Uiso   1.00
O340   O     0.60683   0.27008   0.14782   0.00000  Uiso   1.00
C341   C     0.57113   0.48220   0.06760   0.00000  Uiso   1.00
C342   C     0.55387   0.48220   0.05300   0.00000  Uiso   1.00
O343   O     0.60685   0.47992   0.09777   0.00000  Uiso   1.00
O344   O     0.51818   0.47992   0.02282   0.00000  Uiso   1.00
C345   C     0.69613   0.39280   0.05740   0.00000  Uiso   1.00
C346   C     0.67887   0.39280   0.07200   0.00000  Uiso   1.00
O347   O     0.73185   0.39508   0.02723   0.00000  Uiso   1.00
O348   O     0.64317   0.39508   0.10217   0.00000  Uiso   1.00
C349   C     0.67887   0.35720   0.18240   0.00000  Uiso   1.00
C350   C     0.69613   0.35720   0.19700   0.00000  Uiso   1.00
O351   O     0.64315   0.35492   0.15222   0.00000  Uiso   1.00
O352   O     0.73182   0.35492   0.22717   0.00000  Uiso   1.00
C353   C     0.69613   0.48220   0.05740   0.00000  Uiso   1.00
C354   C     0.67887   0.48220   0.07200   0.00000  Uiso   1.00
O355   O     0.73185   0.47992   0.02723   0.00000  Uiso   1.00
O356   O     0.64317   0.47992   0.10217   0.00000  Uiso   1.00
C357   C     0.67887   0.26780   0.18240   0.00000  Uiso   1.00
C358   C     0.69613   0.26780   0.19700   0.00000  Uiso   1.00
O359   O     0.64315   0.27008   0.15222   0.00000  Uiso   1.00
O360   O     0.73182   0.27008   0.22717   0.00000  Uiso   1.00
C361   C     0.55387   0.35720   0.19260   0.00000  Uiso   1.00
C362   C     0.57113   0.35720   0.17800   0.00000  Uiso   1.00
O363   O     0.51815   0.35492   0.22277   0.00000  Uiso   1.00
O364   O     0.60683   0.35492   0.14782   0.00000  Uiso   1.00
C365   C     0.57113   0.39280   0.06760   0.00000  Uiso   1.00
C366   C     0.55387   0.39280   0.05300   0.00000  Uiso   1.00
O367   O     0.60685   0.39508   0.09777   0.00000  Uiso   1.00
O368   O     0.51818   0.39508   0.02282   0.00000  Uiso   1.00
Al369  Al    0.50000   0.25000   0.00000   0.00000  Uiso   1.00
Al370  Al    0.62500   0.25000   0.12500   0.00000  Uiso   1.00
Al371  Al    0.50000   0.37500   0.00000   0.00000  Uiso   1.00
Al372  Al    0.62500   0.37500   0.12500   0.00000  Uiso   1.00
O373   O     0.74932   0.31250   0.01490   0.00000  Uiso   1.00
C374   C     0.54523   0.31250   0.19990   0.00000  Uiso   1.00
C375   C     0.57975   0.31250   0.17072   0.00000  Uiso   1.00
C376   C     0.52633   0.31250   0.21585   0.00000  Uiso   1.00
C377   C     0.59865   0.31250   0.15475   0.00000  Uiso   1.00
O378   O     0.62568   0.43750   0.13990   0.00000  Uiso   1.00
C379   C     0.57977   0.43750   0.07490   0.00000  Uiso   1.00
C380   C     0.54525   0.43750   0.04572   0.00000  Uiso   1.00
C381   C     0.59868   0.43750   0.09085   0.00000  Uiso   1.00
C382   C     0.52635   0.43750   0.02975   0.00000  Uiso   1.00
O383   O     0.50068   0.43750   0.23509   0.00000  Uiso   1.00
C384   C     0.70477   0.43750   0.05010   0.00000  Uiso   1.00
C385   C     0.67025   0.43750   0.07928   0.00000  Uiso   1.00
C386   C     0.72367   0.43750   0.03415   0.00000  Uiso   1.00
C387   C     0.65135   0.43750   0.09525   0.00000  Uiso   1.00
O388   O     0.62432   0.31250   0.11010   0.00000  Uiso   1.00
C389   C     0.67022   0.31250   0.17510   0.00000  Uiso   1.00
C390   C     0.70475   0.31250   0.20427   0.00000  Uiso   1.00
C391   C     0.65133   0.31250   0.15915   0.00000  Uiso   1.00
C392   C     0.72365   0.31250   0.22025   0.00000  Uiso   1.00
C393   C     0.80387   0.26780   0.19260   0.00000  Uiso   1.00
C394   C     0.82113   0.26780   0.17800   0.00000  Uiso   1.00
O395   O     0.76815   0.27008   0.22277   0.00000  Uiso   1.00
O396   O     0.85683   0.27008   0.14782   0.00000  Uiso   1.00
C397   C     0.82113   0.48220   0.06760   0.00000  Uiso   1.00
C398   C     0.80387   0.48220   0.05300   0.00000  Uiso   1.00
O399   O     0.85685   0.47992   0.09777   0.00000  Uiso   1.00
O400   O     0.76818   0.47992   0.02282   0.00000  Uiso   1.00
C401   C     0.94613   0.39280   0.05740   0.00000  Uiso   1.00
C402   C     0.92887   0.39280   0.07200   0.00000  Uiso   1.00
O403   O     0.98185   0.39508   0.02723   0.00000  Uiso   1.00
O404   O     0.89317   0.39508   0.10217   0.00000  Uiso   1.00
C405   C     0.92887   0.35720   0.18240   0.00000  Uiso   1.00
C406   C     0.94613   0.35720   0.19700   0.00000  Uiso   1.00
O407   O     0.89315   0.35492   0.15222   0.00000  Uiso   1.00
O408   O     0.98182   0.35492   0.22717   0.00000  Uiso   1.00
C409   C     0.94613   0.48220   0.05740   0.00000  Uiso   1.00
C410   C     0.92887   0.48220   0.07200   0.00000  Uiso   1.00
O411   O     0.98185   0.47992   0.02723   0.00000  Uiso   1.00
O412   O     0.89317   0.47992   0.10217   0.00000  Uiso   1.00
C413   C     0.92887   0.26780   0.18240   0.00000  Uiso   1.00
C414   C     0.94613   0.26780   0.19700   0.00000  Uiso   1.00
O415   O     0.89315   0.27008   0.15222   0.00000  Uiso   1.00
O416   O     0.98182   0.27008   0.22717   0.00000  Uiso   1.00
C417   C     0.80387   0.35720   0.19260   0.00000  Uiso   1.00
C418   C     0.82113   0.35720   0.17800   0.00000  Uiso   1.00
O419   O     0.76815   0.35492   0.22277   0.00000  Uiso   1.00
O420   O     0.85683   0.35492   0.14782   0.00000  Uiso   1.00
C421   C     0.82113   0.39280   0.06760   0.00000  Uiso   1.00
C422   C     0.80387   0.39280   0.05300   0.00000  Uiso   1.00
O423   O     0.85685   0.39508   0.09777   0.00000  Uiso   1.00
O424   O     0.76818   0.39508   0.02282   0.00000  Uiso   1.00
Al425  Al    0.75000   0.25000   0.00000   0.00000  Uiso   1.00
Al426  Al    0.87500   0.25000   0.12500   0.00000  Uiso   1.00
Al427  Al    0.75000   0.37500   0.00000   0.00000  Uiso   1.00
Al428  Al    0.87500   0.37500   0.12500   0.00000  Uiso   1.00
O429   O     0.99932   0.31250   0.01490   0.00000  Uiso   1.00
C430   C     0.79523   0.31250   0.19990   0.00000  Uiso   1.00
C431   C     0.82975   0.31250   0.17072   0.00000  Uiso   1.00
C432   C     0.77633   0.31250   0.21585   0.00000  Uiso   1.00
C433   C     0.84865   0.31250   0.15475   0.00000  Uiso   1.00
O434   O     0.87568   0.43750   0.13990   0.00000  Uiso   1.00
C435   C     0.82977   0.43750   0.07490   0.00000  Uiso   1.00
C436   C     0.79525   0.43750   0.04572   0.00000  Uiso   1.00
C437   C     0.84867   0.43750   0.09085   0.00000  Uiso   1.00
C438   C     0.77635   0.43750   0.02975   0.00000  Uiso   1.00
O439   O     0.75068   0.43750   0.23509   0.00000  Uiso   1.00
C440   C     0.95477   0.43750   0.05010   0.00000  Uiso   1.00
C441   C     0.92025   0.43750   0.07928   0.00000  Uiso   1.00
C442   C     0.97367   0.43750   0.03415   0.00000  Uiso   1.00
C443   C     0.90135   0.43750   0.09525   0.00000  Uiso   1.00
O444   O     0.87432   0.31250   0.11010   0.00000  Uiso   1.00
C445   C     0.92022   0.31250   0.17510   0.00000  Uiso   1.00
C446   C     0.95475   0.31250   0.20427   0.00000  Uiso   1.00
C447   C     0.90133   0.31250   0.15915   0.00000  Uiso   1.00
C448   C     0.97365   0.31250   0.22025   0.00000  Uiso   1.00
C449   C     0.05387   0.51780   0.19260   0.00000  Uiso   1.00
C450   C     0.07113   0.51780   0.17800   0.00000  Uiso   1.00
O451   O     0.01815   0.52008   0.22277   0.00000  Uiso   1.00
O452   O     0.10683   0.52008   0.14782   0.00000  Uiso   1.00
C453   C     0.07113   0.73220   0.06760   0.00000  Uiso   1.00
C454   C     0.05387   0.73220   0.05300   0.00000  Uiso   1.00
O455   O     0.10685   0.72992   0.09777   0.00000  Uiso   1.00
O456   O     0.01818   0.72992   0.02282   0.00000  Uiso   1.00
C457   C     0.19613   0.64280   0.05740   0.00000  Uiso   1.00
C458   C     0.17887   0.64280   0.07200   0.00000  Uiso   1.00
O459   O     0.23185   0.64508   0.02723   0.00000  Uiso   1.00
O460   O     0.14317   0.64508   0.10217   0.00000  Uiso   1.00
C461   C     0.17887   0.60720   0.18240   0.00000  Uiso   1.00
C462   C     0.19613   0.60720   0.19700   0.00000  Uiso   1.00
O463   O     0.14315   0.60492   0.15222   0.00000  Uiso   1.00
O464   O     0.23182   0.60492   0.22717   0.00000  Uiso   1.00
C465   C     0.19613   0.73220   0.05740   0.00000  Uiso   1.00
C466   C     0.17887   0.73220   0.07200   0.00000  Uiso   1.00
O467   O     0.23185   0.72992   0.02723   0.00000  Uiso   1.00
O468   O     0.14317   0.72992   0.10217   0.00000  Uiso   1.00
C469   C     0.17887   0.51780   0.18240   0.00000  Uiso   1.00
C470   C     0.19613   0.51780   0.19700   0.00000  Uiso   1.00
O471   O     0.14315   0.52008   0.15222   0.00000  Uiso   1.00
O472   O     0.23182   0.52008   0.22717   0.00000  Uiso   1.00
C473   C     0.05387   0.60720   0.19260   0.00000  Uiso   1.00
C474   C     0.07113   0.60720   0.17800   0.00000  Uiso   1.00
O475   O     0.01815   0.60492   0.22277   0.00000  Uiso   1.00
O476   O     0.10683   0.60492   0.14782   0.00000  Uiso   1.00
C477   C     0.07113   0.64280   0.06760   0.00000  Uiso   1.00
C478   C     0.05387   0.64280   0.05300   0.00000  Uiso   1.00
O479   O     0.10685   0.64508   0.09777   0.00000  Uiso   1.00
O480   O     0.01818   0.64508   0.02282   0.00000  Uiso   1.00
Al481  Al    0.00000   0.50000   0.00000   0.00000  Uiso   1.00
Al482  Al    0.12500   0.50000   0.12500   0.00000  Uiso   1.00
Al483  Al    0.00000   0.62500   0.00000   0.00000  Uiso   1.00
Al484  Al    0.12500   0.62500   0.12500   0.00000  Uiso   1.00
O485   O     0.24932   0.56250   0.01490   0.00000  Uiso   1.00
C486   C     0.04523   0.56250   0.19990   0.00000  Uiso   1.00
C487   C     0.07975   0.56250   0.17072   0.00000  Uiso   1.00
C488   C     0.02633   0.56250   0.21585   0.00000  Uiso   1.00
C489   C     0.09865   0.56250   0.15475   0.00000  Uiso   1.00
O490   O     0.12568   0.68750   0.13990   0.00000  Uiso   1.00
C491   C     0.07977   0.68750   0.07490   0.00000  Uiso   1.00
C492   C     0.04525   0.68750   0.04572   0.00000  Uiso   1.00
C493   C     0.09868   0.68750   0.09085   0.00000  Uiso   1.00
C494   C     0.02635   0.68750   0.02975   0.00000  Uiso   1.00
O495   O     0.00068   0.68750   0.23509   0.00000  Uiso   1.00
C496   C     0.20477   0.68750   0.05010   0.00000  Uiso   1.00
C497   C     0.17025   0.68750   0.07928   0.00000  Uiso   1.00
C498   C     0.22367   0.68750   0.03415   0.00000  Uiso   1.00
C499   C     0.15135   0.68750   0.09525   0.00000  Uiso   1.00
O500   O     0.12432   0.56250   0.11010   0.00000  Uiso   1.00
C501   C     0.17022   0.56250   0.17510   0.00000  Uiso   1.00
C502   C     0.20475   0.56250   0.20427   0.00000  Uiso   1.00
C503   C     0.15133   0.56250   0.15915   0.00000  Uiso   1.00
C504   C     0.22365   0.56250   0.22025   0.00000  Uiso   1.00
C505   C     0.30387   0.51780   0.19260   0.00000  Uiso   1.00
C506   C     0.32113   0.51780   0.17800   0.00000  Uiso   1.00
O507   O     0.26815   0.52008   0.22277   0.00000  Uiso   1.00
O508   O     0.35682   0.52008   0.14782   0.00000  Uiso   1.00
C509   C     0.32113   0.73220   0.06760   0.00000  Uiso   1.00
C510   C     0.30387   0.73220   0.05300   0.00000  Uiso   1.00
O511   O     0.35685   0.72992   0.09777   0.00000  Uiso   1.00
O512   O     0.26818   0.72992   0.02282   0.00000  Uiso   1.00
C513   C     0.44613   0.64280   0.05740   0.00000  Uiso   1.00
C514   C     0.42887   0.64280   0.07200   0.00000  Uiso   1.00
O515   O     0.48185   0.64508   0.02723   0.00000  Uiso   1.00
O516   O     0.39317   0.64508   0.10217   0.00000  Uiso   1.00
C517   C     0.42887   0.60720   0.18240   0.00000  Uiso   1.00
C518   C     0.44613   0.60720   0.19700   0.00000  Uiso   1.00
O519   O     0.39315   0.60492   0.15222   0.00000  Uiso   1.00
O520   O     0.48182   0.60492   0.22717   0.00000  Uiso   1.00
C521   C     0.44613   0.73220   0.05740   0.00000  Uiso   1.00
C522   C     0.42887   0.73220   0.07200   0.00000  Uiso   1.00
O523   O     0.48185   0.72992   0.02723   0.00000  Uiso   1.00
O524   O     0.39317   0.72992   0.10217   0.00000  Uiso   1.00
C525   C     0.42887   0.51780   0.18240   0.00000  Uiso   1.00
C526   C     0.44613   0.51780   0.19700   0.00000  Uiso   1.00
O527   O     0.39315   0.52008   0.15222   0.00000  Uiso   1.00
O528   O     0.48182   0.52008   0.22717   0.00000  Uiso   1.00
C529   C     0.30387   0.60720   0.19260   0.00000  Uiso   1.00
C530   C     0.32113   0.60720   0.17800   0.00000  Uiso   1.00
O531   O     0.26815   0.60492   0.22277   0.00000  Uiso   1.00
O532   O     0.35682   0.60492   0.14782   0.00000  Uiso   1.00
C533   C     0.32113   0.64280   0.06760   0.00000  Uiso   1.00
C534   C     0.30387   0.64280   0.05300   0.00000  Uiso   1.00
O535   O     0.35685   0.64508   0.09777   0.00000  Uiso   1.00
O536   O     0.26818   0.64508   0.02282   0.00000  Uiso   1.00
Al537  Al    0.25000   0.50000   0.00000   0.00000  Uiso   1.00
Al538  Al    0.37500   0.50000   0.12500   0.00000  Uiso   1.00
Al539  Al    0.25000   0.62500   0.00000   0.00000  Uiso   1.00
Al540  Al    0.37500   0.62500   0.12500   0.00000  Uiso   1.00
O541   O     0.49932   0.56250   0.01490   0.00000  Uiso   1.00
C542   C     0.29523   0.56250   0.19990   0.00000  Uiso   1.00
C543   C     0.32975   0.56250   0.17072   0.00000  Uiso   1.00
C544   C     0.27633   0.56250   0.21585   0.00000  Uiso   1.00
C545   C     0.34865   0.56250   0.15475   0.00000  Uiso   1.00
O546   O     0.37568   0.68750   0.13990   0.00000  Uiso   1.00
C547   C     0.32977   0.68750   0.07490   0.00000  Uiso   1.00
C548   C     0.29525   0.68750   0.04572   0.00000  Uiso   1.00
C549   C     0.34868   0.68750   0.09085   0.00000  Uiso   1.00
C550   C     0.27635   0.68750   0.02975   0.00000  Uiso   1.00
O551   O     0.25068   0.68750   0.23509   0.00000  Uiso   1.00
C552   C     0.45477   0.68750   0.05010   0.00000  Uiso   1.00
C553   C     0.42025   0.68750   0.07928   0.00000  Uiso   1.00
C554   C     0.47367   0.68750   0.03415   0.00000  Uiso   1.00
C555   C     0.40135   0.68750   0.09525   0.00000  Uiso   1.00
O556   O     0.37432   0.56250   0.11010   0.00000  Uiso   1.00
C557   C     0.42022   0.56250   0.17510   0.00000  Uiso   1.00
C558   C     0.45475   0.56250   0.20427   0.00000  Uiso   1.00
C559   C     0.40133   0.56250   0.15915   0.00000  Uiso   1.00
C560   C     0.47365   0.56250   0.22025   0.00000  Uiso   1.00
C561   C     0.55387   0.51780   0.19260   0.00000  Uiso   1.00
C562   C     0.57113   0.51780   0.17800   0.00000  Uiso   1.00
O563   O     0.51815   0.52008   0.22277   0.00000  Uiso   1.00
O564   O     0.60683   0.52008   0.14782   0.00000  Uiso   1.00
C565   C     0.57113   0.73220   0.06760   0.00000  Uiso   1.00
C566   C     0.55387   0.73220   0.05300   0.00000  Uiso   1.00
O567   O     0.60685   0.72992   0.09777   0.00000  Uiso   1.00
O568   O     0.51818   0.72992   0.02282   0.00000  Uiso   1.00
C569   C     0.69613   0.64280   0.05740   0.00000  Uiso   1.00
C570   C     0.67887   0.64280   0.07200   0.00000  Uiso   1.00
O571   O     0.73185   0.64508   0.02723   0.00000  Uiso   1.00
O572   O     0.64317   0.64508   0.10217   0.00000  Uiso   1.00
C573   C     0.67887   0.60720   0.18240   0.00000  Uiso   1.00
C574   C     0.69613   0.60720   0.19700   0.00000  Uiso   1.00
O575   O     0.64315   0.60492   0.15222   0.00000  Uiso   1.00
O576   O     0.73182   0.60492   0.22717   0.00000  Uiso   1.00
C577   C     0.69613   0.73220   0.05740   0.00000  Uiso   1.00
C578   C     0.67887   0.73220   0.07200   0.00000  Uiso   1.00
O579   O     0.73185   0.72992   0.02723   0.00000  Uiso   1.00
O580   O     0.64317   0.72992   0.10217   0.00000  Uiso   1.00
C581   C     0.67887   0.51780   0.18240   0.00000  Uiso   1.00
C582   C     0.69613   0.51780   0.19700   0.00000  Uiso   1.00
O583   O     0.64315   0.52008   0.15222   0.00000  Uiso   1.00
O584   O     0.73182   0.52008   0.22717   0.00000  Uiso   1.00
C585   C     0.55387   0.60720   0.19260   0.00000  Uiso   1.00
C586   C     0.57113   0.60720   0.17800   0.00000  Uiso   1.00
O587   O     0.51815   0.60492   0.22277   0.00000  Uiso   1.00
O588   O     0.60683   0.60492   0.14782   0.00000  Uiso   1.00
C589   C     0.57113   0.64280   0.06760   0.00000  Uiso   1.00
C590   C     0.55387   0.64280   0.05300   0.00000  Uiso   1.00
O591   O     0.60685   0.64508   0.09777   0.00000  Uiso   1.00
O592   O     0.51818   0.64508   0.02282   0.00000  Uiso   1.00
Al593  Al    0.50000   0.50000   0.00000   0.00000  Uiso   1.00
Al594  Al    0.62500   0.50000   0.12500   0.00000  Uiso   1.00
Al595  Al    0.50000   0.62500   0.00000   0.00000  Uiso   1.00
Al596  Al    0.62500   0.62500   0.12500   0.00000  Uiso   1.00
O597   O     0.74932   0.56250   0.01490   0.00000  Uiso   1.00
C598   C     0.54523   0.56250   0.19990   0.00000  Uiso   1.00
C599   C     0.57975   0.56250   0.17072   0.00000  Uiso   1.00
C600   C     0.52633   0.56250   0.21585   0.00000  Uiso   1.00
C601   C     0.59865   0.56250   0.15475   0.00000  Uiso   1.00
O602   O     0.62568   0.68750   0.13990   0.00000  Uiso   1.00
C603   C     0.57977   0.68750   0.07490   0.00000  Uiso   1.00
C604   C     0.54525   0.68750   0.04572   0.00000  Uiso   1.00
C605   C     0.59868   0.68750   0.09085   0.00000  Uiso   1.00
C606   C     0.52635   0.68750   0.02975   0.00000  Uiso   1.00
O607   O     0.50068   0.68750   0.23509   0.00000  Uiso   1.00
C608   C     0.70477   0.68750   0.05010   0.00000  Uiso   1.00
C609   C     0.67025   0.68750   0.07928   0.00000  Uiso   1.00
C610   C     0.72367   0.68750   0.03415   0.00000  Uiso   1.00
C611   C     0.65135   0.68750   0.09525   0.00000  Uiso   1.00
O612   O     0.62432   0.56250   0.11010   0.00000  Uiso   1.00
C613   C     0.67022   0.56250   0.17510   0.00000  Uiso   1.00
C614   C     0.70475   0.56250   0.20427   0.00000  Uiso   1.00
C615   C     0.65133   0.56250   0.15915   0.00000  Uiso   1.00
C616   C     0.72365   0.56250   0.22025   0.00000  Uiso   1.00
C617   C     0.80387   0.51780   0.19260   0.00000  Uiso   1.00
C618   C     0.82113   0.51780   0.17800   0.00000  Uiso   1.00
O619   O     0.76815   0.52008   0.22277   0.00000  Uiso   1.00
O620   O     0.85683   0.52008   0.14782   0.00000  Uiso   1.00
C621   C     0.82113   0.73220   0.06760   0.00000  Uiso   1.00
C622   C     0.80387   0.73220   0.05300   0.00000  Uiso   1.00
O623   O     0.85685   0.72992   0.09777   0.00000  Uiso   1.00
O624   O     0.76818   0.72992   0.02282   0.00000  Uiso   1.00
C625   C     0.94613   0.64280   0.05740   0.00000  Uiso   1.00
C626   C     0.92887   0.64280   0.07200   0.00000  Uiso   1.00
O627   O     0.98185   0.64508   0.02723   0.00000  Uiso   1.00
O628   O     0.89317   0.64508   0.10217   0.00000  Uiso   1.00
C629   C     0.92887   0.60720   0.18240   0.00000  Uiso   1.00
C630   C     0.94613   0.60720   0.19700   0.00000  Uiso   1.00
O631   O     0.89315   0.60492   0.15222   0.00000  Uiso   1.00
O632   O     0.98182   0.60492   0.22717   0.00000  Uiso   1.00
C633   C     0.94613   0.73220   0.05740   0.00000  Uiso   1.00
C634   C     0.92887   0.73220   0.07200   0.00000  Uiso   1.00
O635   O     0.98185   0.72992   0.02723   0.00000  Uiso   1.00
O636   O     0.89317   0.72992   0.10217   0.00000  Uiso   1.00
C637   C     0.92887   0.51780   0.18240   0.00000  Uiso   1.00
C638   C     0.94613   0.51780   0.19700   0.00000  Uiso   1.00
O639   O     0.89315   0.52008   0.15222   0.00000  Uiso   1.00
O640   O     0.98182   0.52008   0.22717   0.00000  Uiso   1.00
C641   C     0.80387   0.60720   0.19260   0.00000  Uiso   1.00
C642   C     0.82113   0.60720   0.17800   0.00000  Uiso   1.00
O643   O     0.76815   0.60492   0.22277   0.00000  Uiso   1.00
O644   O     0.85683   0.60492   0.14782   0.00000  Uiso   1.00
C645   C     0.82113   0.64280   0.06760   0.00000  Uiso   1.00
C646   C     0.80387   0.64280   0.05300   0.00000  Uiso   1.00
O647   O     0.85685   0.64508   0.09777   0.00000  Uiso   1.00
O648   O     0.76818   0.64508   0.02282   0.00000  Uiso   1.00
Al649  Al    0.75000   0.50000   0.00000   0.00000  Uiso   1.00
Al650  Al    0.87500   0.50000   0.12500   0.00000  Uiso   1.00
Al651  Al    0.75000   0.62500   0.00000   0.00000  Uiso   1.00
Al652  Al    0.87500   0.62500   0.12500   0.00000  Uiso   1.00
O653   O     0.99932   0.56250   0.01490   0.00000  Uiso   1.00
C654   C     0.79523   0.56250   0.19990   0.00000  Uiso   1.00
C655   C     0.82975   0.56250   0.17072   0.00000  Uiso   1.00
C656   C     0.77633   0.56250   0.21585   0.00000  Uiso   1.00
C657   C     0.84865   0.56250   0.15475   0.00000  Uiso   1.00
O658   O     0.87568   0.68750   0.13990   0.00000  Uiso   1.00
C659   C     0.82977   0.68750   0.07490   0.00000  Uiso   1.00
C660   C     0.79525   0.68750   0.04572   0.00000  Uiso   1.00
C661   C     0.84867   0.68750   0.09085   0.00000  Uiso   1.00
C662   C     0.77635   0.68750   0.02975   0.00000  Uiso   1.00
O663   O     0.75068   0.68750   0.23509   0.00000  Uiso   1.00
C664   C     0.95477   0.68750   0.05010   0.00000  Uiso   1.00
C665   C     0.92025   0.68750   0.07928   0.00000  Uiso   1.00
C666   C     0.97367   0.68750   0.03415   0.00000  Uiso   1.00
C667   C     0.90135   0.68750   0.09525   0.00000  Uiso   1.00
O668   O     0.87432   0.56250   0.11010   0.00000  Uiso   1.00
C669   C     0.92022   0.56250   0.17510   0.00000  Uiso   1.00
C670   C     0.95475   0.56250   0.20427   0.00000  Uiso   1.00
C671   C     0.90133   0.56250   0.15915   0.00000  Uiso   1.00
C672   C     0.97365   0.56250   0.22025   0.00000  Uiso   1.00
C673   C     0.05387   0.76780   0.19260   0.00000  Uiso   1.00
C674   C     0.07113   0.76780   0.17800   0.00000  Uiso   1.00
O675   O     0.01815   0.77008   0.22277   0.00000  Uiso   1.00
O676   O     0.10683   0.77008   0.14782   0.00000  Uiso   1.00
C677   C     0.07113   0.98220   0.06760   0.00000  Uiso   1.00
C678   C     0.05387   0.98220   0.05300   0.00000  Uiso   1.00
O679   O     0.10685   0.97992   0.09777   0.00000  Uiso   1.00
O680   O     0.01818   0.97992   0.02282   0.00000  Uiso   1.00
C681   C     0.19613   0.89280   0.05740   0.00000  Uiso   1.00
C682   C     0.17887   0.89280   0.07200   0.00000  Uiso   1.00
O683   O     0.23185   0.89508   0.02723   0.00000  Uiso   1.00
O684   O     0.14317   0.89508   0.10217   0.00000  Uiso   1.00
C685   C     0.17887   0.85720   0.18240   0.00000  Uiso   1.00
C686   C     0.19613   0.85720   0.19700   0.00000  Uiso   1.00
O687   O     0.14315   0.85492   0.15222   0.00000  Uiso   1.00
O688   O     0.23182   0.85492   0.22717   0.00000  Uiso   1.00
C689   C     0.19613   0.98220   0.05740   0.00000  Uiso   1.00
C690   C     0.17887   0.98220   0.07200   0.00000  Uiso   1.00
O691   O     0.23185   0.97992   0.02723   0.00000  Uiso   1.00
O692   O     0.14317   0.97992   0.10217   0.00000  Uiso   1.00
C693   C     0.17887   0.76780   0.18240   0.00000  Uiso   1.00
C694   C     0.19613   0.76780   0.19700   0.00000  Uiso   1.00
O695   O     0.14315   0.77008   0.15222   0.00000  Uiso   1.00
O696   O     0.23182   0.77008   0.22717   0.00000  Uiso   1.00
C697   C     0.05387   0.85720   0.19260   0.00000  Uiso   1.00
C698   C     0.07113   0.85720   0.17800   0.00000  Uiso   1.00
O699   O     0.01815   0.85492   0.22277   0.00000  Uiso   1.00
O700   O     0.10683   0.85492   0.14782   0.00000  Uiso   1.00
C701   C     0.07113   0.89280   0.06760   0.00000  Uiso   1.00
C702   C     0.05387   0.89280   0.05300   0.00000  Uiso   1.00
O703   O     0.10685   0.89508   0.09777   0.00000  Uiso   1.00
O704   O     0.01818   0.89508   0.02282   0.00000  Uiso   1.00
Al705  Al    0.00000   0.75000   0.00000   0.00000  Uiso   1.00
Al706  Al    0.12500   0.75000   0.12500   0.00000  Uiso   1.00
Al707  Al    0.00000   0.87500   0.00000   0.00000  Uiso   1.00
Al708  Al    0.12500   0.87500   0.12500   0.00000  Uiso   1.00
O709   O     0.24932   0.81250   0.01490   0.00000  Uiso   1.00
C710   C     0.04523   0.81250   0.19990   0.00000  Uiso   1.00
C711   C     0.07975   0.81250   0.17072   0.00000  Uiso   1.00
C712   C     0.02633   0.81250   0.21585   0.00000  Uiso   1.00
C713   C     0.09865   0.81250   0.15475   0.00000  Uiso   1.00
O714   O     0.12568   0.93750   0.13990   0.00000  Uiso   1.00
C715   C     0.07977   0.93750   0.07490   0.00000  Uiso   1.00
C716   C     0.04525   0.93750   0.04572   0.00000  Uiso   1.00
C717   C     0.09868   0.93750   0.09085   0.00000  Uiso   1.00
C718   C     0.02635   0.93750   0.02975   0.00000  Uiso   1.00
O719   O     0.00068   0.93750   0.23509   0.00000  Uiso   1.00
C720   C     0.20477   0.93750   0.05010   0.00000  Uiso   1.00
C721   C     0.17025   0.93750   0.07928   0.00000  Uiso   1.00
C722   C     0.22367   0.93750   0.03415   0.00000  Uiso   1.00
C723   C     0.15135   0.93750   0.09525   0.00000  Uiso   1.00
O724   O     0.12432   0.81250   0.11010   0.00000  Uiso   1.00
C725   C     0.17022   0.81250   0.17510   0.00000  Uiso   1.00
C726   C     0.20475   0.81250   0.20427   0.00000  Uiso   1.00
C727   C     0.15133   0.81250   0.15915   0.00000  Uiso   1.00
C728   C     0.22365   0.81250   0.22025   0.00000  Uiso   1.00
C729   C     0.30387   0.76780   0.19260   0.00000  Uiso   1.00
C730   C     0.32113   0.76780   0.17800   0.00000  Uiso   1.00
O731   O     0.26815   0.77008   0.22277   0.00000  Uiso   1.00
O732   O     0.35682   0.77008   0.14782   0.00000  Uiso   1.00
C733   C     0.32113   0.98220   0.06760   0.00000  Uiso   1.00
C734   C     0.30387   0.98220   0.05300   0.00000  Uiso   1.00
O735   O     0.35685   0.97992   0.09777   0.00000  Uiso   1.00
O736   O     0.26818   0.97992   0.02282   0.00000  Uiso   1.00
C737   C     0.44613   0.89280   0.05740   0.00000  Uiso   1.00
C738   C     0.42887   0.89280   0.07200   0.00000  Uiso   1.00
O739   O     0.48185   0.89508   0.02723   0.00000  Uiso   1.00
O740   O     0.39317   0.89508   0.10217   0.00000  Uiso   1.00
C741   C     0.42887   0.85720   0.18240   0.00000  Uiso   1.00
C742   C     0.44613   0.85720   0.19700   0.00000  Uiso   1.00
O743   O     0.39315   0.85492   0.15222   0.00000  Uiso   1.00
O744   O     0.48182   0.85492   0.22717   0.00000  Uiso   1.00
C745   C     0.44613   0.98220   0.05740   0.00000  Uiso   1.00
C746   C     0.42887   0.98220   0.07200   0.00000  Uiso   1.00
O747   O     0.48185   0.97992   0.02723   0.00000  Uiso   1.00
O748   O     0.39317   0.97992   0.10217   0.00000  Uiso   1.00
C749   C     0.42887   0.76780   0.18240   0.00000  Uiso   1.00
C750   C     0.44613   0.76780   0.19700   0.00000  Uiso   1.00
O751   O     0.39315   0.77008   0.15222   0.00000  Uiso   1.00
O752   O     0.48182   0.77008   0.22717   0.00000  Uiso   1.00
C753   C     0.30387   0.85720   0.19260   0.00000  Uiso   1.00
C754   C     0.32113   0.85720   0.17800   0.00000  Uiso   1.00
O755   O     0.26815   0.85492   0.22277   0.00000  Uiso   1.00
O756   O     0.35682   0.85492   0.14782   0.00000  Uiso   1.00
C757   C     0.32113   0.89280   0.06760   0.00000  Uiso   1.00
C758   C     0.30387   0.89280   0.05300   0.00000  Uiso   1.00
O759   O     0.35685   0.89508   0.09777   0.00000  Uiso   1.00
O760   O     0.26818   0.89508   0.02282   0.00000  Uiso   1.00
Al761  Al    0.25000   0.75000   0.00000   0.00000  Uiso   1.00
Al762  Al    0.37500   0.75000   0.12500   0.00000  Uiso   1.00
Al763  Al    0.25000   0.87500   0.00000   0.00000  Uiso   1.00
Al764  Al    0.37500   0.87500   0.12500   0.00000  Uiso   1.00
O765   O     0.49932   0.81250   0.01490   0.00000  Uiso   1.00
C766   C     0.29523   0.81250   0.19990   0.00000  Uiso   1.00
C767   C     0.32975   0.81250   0.17072   0.00000  Uiso   1.00
C768   C     0.27633   0.81250   0.21585   0.00000  Uiso   1.00
C769   C     0.34865   0.81250   0.15475   0.00000  Uiso   1.00
O770   O     0.37568   0.93750   0.13990   0.00000  Uiso   1.00
C771   C     0.32977   0.93750   0.07490   0.00000  Uiso   1.00
C772   C     0.29525   0.93750   0.04572   0.00000  Uiso   1.00
C773   C     0.34868   0.93750   0.09085   0.00000  Uiso   1.00
C774   C     0.27635   0.93750   0.02975   0.00000  Uiso   1.00
O775   O     0.25068   0.93750   0.23509   0.00000  Uiso   1.00
C776   C     0.45477   0.93750   0.05010   0.00000  Uiso   1.00
C777   C     0.42025   0.93750   0.07928   0.00000  Uiso   1.00
C778   C     0.47367   0.93750   0.03415   0.00000  Uiso   1.00
C779   C     0.40135   0.93750   0.09525   0.00000  Uiso   1.00
O780   O     0.37432   0.81250   0.11010   0.00000  Uiso   1.00
C781   C     0.42022   0.81250   0.17510   0.00000  Uiso   1.00
C782   C     0.45475   0.81250   0.20427   0.00000  Uiso   1.00
C783   C     0.40133   0.81250   0.15915   0.00000  Uiso   1.00
C784   C     0.47365   0.81250   0.22025   0.00000  Uiso   1.00
C785   C     0.55387   0.76780   0.19260   0.00000  Uiso   1.00
C786   C     0.57113   0.76780   0.17800   0.00000  Uiso   1.00
O787   O     0.51815   0.77008   0.22277   0.00000  Uiso   1.00
O788   O     0.60683   0.77008   0.14782   0.00000  Uiso   1.00
C789   C     0.57113   0.98220   0.06760   0.00000  Uiso   1.00
C790   C     0.55387   0.98220   0.05300   0.00000  Uiso   1.00
O791   O     0.60685   0.97992   0.09777   0.00000  Uiso   1.00
O792   O     0.51818   0.97992   0.02282   0.00000  Uiso   1.00
C793   C     0.69613   0.89280   0.05740   0.00000  Uiso   1.00
C794   C     0.67887   0.89280   0.07200   0.00000  Uiso   1.00
O795   O     0.73185   0.89508   0.02723   0.00000  Uiso   1.00
O796   O     0.64317   0.89508   0.10217   0.00000  Uiso   1.00
C797   C     0.67887   0.85720   0.18240   0.00000  Uiso   1.00
C798   C     0.69613   0.85720   0.19700   0.00000  Uiso   1.00
O799   O     0.64315   0.85492   0.15222   0.00000  Uiso   1.00
O800   O     0.73182   0.85492   0.22717   0.00000  Uiso   1.00
C801   C     0.69613   0.98220   0.05740   0.00000  Uiso   1.00
C802   C     0.67887   0.98220   0.07200   0.00000  Uiso   1.00
O803   O     0.73185   0.97992   0.02723   0.00000  Uiso   1.00
O804   O     0.64317   0.97992   0.10217   0.00000  Uiso   1.00
C805   C     0.67887   0.76780   0.18240   0.00000  Uiso   1.00
C806   C     0.69613   0.76780   0.19700   0.00000  Uiso   1.00
O807   O     0.64315   0.77008   0.15222   0.00000  Uiso   1.00
O808   O     0.73182   0.77008   0.22717   0.00000  Uiso   1.00
C809   C     0.55387   0.85720   0.19260   0.00000  Uiso   1.00
C810   C     0.57113   0.85720   0.17800   0.00000  Uiso   1.00
O811   O     0.51815   0.85492   0.22277   0.00000  Uiso   1.00
O812   O     0.60683   0.85492   0.14782   0.00000  Uiso   1.00
C813   C     0.57113   0.89280   0.06760   0.00000  Uiso   1.00
C814   C     0.55387   0.89280   0.05300   0.00000  Uiso   1.00
O815   O     0.60685   0.89508   0.09777   0.00000  Uiso   1.00
O816   O     0.51818   0.89508   0.02282   0.00000  Uiso   1.00
Al817  Al    0.50000   0.75000   0.00000   0.00000  Uiso   1.00
Al818  Al    0.62500   0.75000   0.12500   0.00000  Uiso   1.00
Al819  Al    0.50000   0.87500   0.00000   0.00000  Uiso   1.00
Al820  Al    0.62500   0.87500   0.12500   0.00000  Uiso   1.00
O821   O     0.74932   0.81250   0.01490   0.00000  Uiso   1.00
C822   C     0.54523   0.81250   0.19990   0.00000  Uiso   1.00
C823   C     0.57975   0.81250   0.17072   0.00000  Uiso   1.00
C824   C     0.52633   0.81250   0.21585   0.00000  Uiso   1.00
C825   C     0.59865   0.81250   0.15475   0.00000  Uiso   1.00
O826   O     0.62568   0.93750   0.13990   0.00000  Uiso   1.00
C827   C     0.57977   0.93750   0.07490   0.00000  Uiso   1.00
C828   C     0.54525   0.93750   0.04572   0.00000  Uiso   1.00
C829   C     0.59868   0.93750   0.09085   0.00000  Uiso   1.00
C830   C     0.52635   0.93750   0.02975   0.00000  Uiso   1.00
O831   O     0.50068   0.93750   0.23509   0.00000  Uiso   1.00
C832   C     0.70477   0.93750   0.05010   0.00000  Uiso   1.00
C833   C     0.67025   0.93750   0.07928   0.00000  Uiso   1.00
C834   C     0.72367   0.93750   0.03415   0.00000  Uiso   1.00
C835   C     0.65135   0.93750   0.09525   0.00000  Uiso   1.00
O836   O     0.62432   0.81250   0.11010   0.00000  Uiso   1.00
C837   C     0.67022   0.81250   0.17510   0.00000  Uiso   1.00
C838   C     0.70475   0.81250   0.20427   0.00000  Uiso   1.00
C839   C     0.65133   0.81250   0.15915   0.00000  Uiso   1.00
C840   C     0.72365   0.81250   0.22025   0.00000  Uiso   1.00
C841   C     0.80387   0.76780   0.19260   0.00000  Uiso   1.00
C842   C     0.82113   0.76780   0.17800   0.00000  Uiso   1.00
O843   O     0.76815   0.77008   0.22277   0.00000  Uiso   1.00
O844   O     0.85683   0.77008   0.14782   0.00000  Uiso   1.00
C845   C     0.82113   0.98220   0.06760   0.00000  Uiso   1.00
C846   C     0.80387   0.98220   0.05300   0.00000  Uiso   1.00
O847   O     0.85685   0.97992   0.09777   0.00000  Uiso   1.00
O848   O     0.76818   0.97992   0.02282   0.00000  Uiso   1.00
C849   C     0.94613   0.89280   0.05740   0.00000  Uiso   1.00
C850   C     0.92887   0.89280   0.07200   0.00000  Uiso   1.00
O851   O     0.98185   0.89508   0.02723   0.00000  Uiso   1.00
O852   O     0.89317   0.89508   0.10217   0.00000  Uiso   1.00
C853   C     0.92887   0.85720   0.18240   0.00000  Uiso   1.00
C854   C     0.94613   0.85720   0.19700   0.00000  Uiso   1.00
O855   O     0.89315   0.85492   0.15222   0.00000  Uiso   1.00
O856   O     0.98182   0.85492   0.22717   0.00000  Uiso   1.00
C857   C     0.94613   0.98220   0.05740   0.00000  Uiso   1.00
C858   C     0.92887   0.98220   0.07200   0.00000  Uiso   1.00
O859   O     0.98185   0.97992   0.02723   0.00000  Uiso   1.00
O860   O     0.89317   0.97992   0.10217   0.00000  Uiso   1.00
C861   C     0.92887   0.76780   0.18240   0.00000  Uiso   1.00
C862   C     0.94613   0.76780   0.19700   0.00000  Uiso   1.00
O863   O     0.89315   0.77008   0.15222   0.00000  Uiso   1.00
O864   O     0.98182   0.77008   0.22717   0.00000  Uiso   1.00
C865   C     0.80387   0.85720   0.19260   0.00000  Uiso   1.00
C866   C     0.82113   0.85720   0.17800   0.00000  Uiso   1.00
O867   O     0.76815   0.85492   0.22277   0.00000  Uiso   1.00
O868   O     0.85683   0.85492   0.14782   0.00000  Uiso   1.00
C869   C     0.82113   0.89280   0.06760   0.00000  Uiso   1.00
C870   C     0.80387   0.89280   0.05300   0.00000  Uiso   1.00
O871   O     0.85685   0.89508   0.09777   0.00000  Uiso   1.00
O872   O     0.76818   0.89508   0.02282   0.00000  Uiso   1.00
Al873  Al    0.75000   0.75000   0.00000   0.00000  Uiso   1.00
Al874  Al    0.87500   0.75000   0.12500   0.00000  Uiso   1.00
Al875  Al    0.75000   0.87500   0.00000   0.00000  Uiso   1.00
Al876  Al    0.87500   0.87500   0.12500   0.00000  Uiso   1.00
O877   O     0.99932   0.81250   0.01490   0.00000  Uiso   1.00
C878   C     0.79523   0.81250   0.19990   0.00000  Uiso   1.00
C879   C     0.82975   0.81250   0.17072   0.00000  Uiso   1.00
C880   C     0.77633   0.81250   0.21585   0.00000  Uiso   1.00
C881   C     0.84865   0.81250   0.15475   0.00000  Uiso   1.00
O882   O     0.87568   0.93750   0.13990   0.00000  Uiso   1.00
C883   C     0.82977   0.93750   0.07490   0.00000  Uiso   1.00
C884   C     0.79525   0.93750   0.04572   0.00000  Uiso   1.00
C885   C     0.84867   0.93750   0.09085   0.00000  Uiso   1.00
C886   C     0.77635   0.93750   0.02975   0.00000  Uiso   1.00
O887   O     0.75068   0.93750   0.23509   0.00000  Uiso   1.00
C888   C     0.95477   0.93750   0.05010   0.00000  Uiso   1.00
C889   C     0.92025   0.93750   0.07928   0.00000  Uiso   1.00
C890   C     0.97367   0.93750   0.03415   0.00000  Uiso   1.00
C891   C     0.90135   0.93750   0.09525   0.00000  Uiso   1.00
O892   O     0.87432   0.81250   0.11010   0.00000  Uiso   1.00
C893   C     0.92022   0.81250   0.17510   0.00000  Uiso   1.00
C894   C     0.95475   0.81250   0.20427   0.00000  Uiso   1.00
C895   C     0.90133   0.81250   0.15915   0.00000  Uiso   1.00
C896   C     0.97365   0.81250   0.22025   0.00000  Uiso   1.00
C897   C     0.05387   0.01780   0.44260   0.00000  Uiso   1.00
C898   C     0.07113   0.01780   0.42800   0.00000  Uiso   1.00
O899   O     0.01815   0.02008   0.47277   0.00000  Uiso   1.00
O900   O     0.10683   0.02008   0.39782   0.00000  Uiso   1.00
C901   C     0.07113   0.23220   0.31760   0.00000  Uiso   1.00
C902   C     0.05387   0.23220   0.30300   0.00000  Uiso   1.00
O903   O     0.10685   0.22992   0.34777   0.00000  Uiso   1.00
O904   O     0.01818   0.22992   0.27282   0.00000  Uiso   1.00
C905   C     0.19613   0.14280   0.30740   0.00000  Uiso   1.00
C906   C     0.17887   0.14280   0.32200   0.00000  Uiso   1.00
O907   O     0.23185   0.14508   0.27722   0.00000  Uiso   1.00
O908   O     0.14317   0.14508   0.35217   0.00000  Uiso   1.00
C909   C     0.17887   0.10720   0.43240   0.00000  Uiso   1.00
C910   C     0.19613   0.10720   0.44700   0.00000  Uiso   1.00
O911   O     0.14315   0.10492   0.40222   0.00000  Uiso   1.00
O912   O     0.23182   0.10492   0.47717   0.00000  Uiso   1.00
C913   C     0.19613   0.23220   0.30740   0.00000  Uiso   1.00
C914   C     0.17887   0.23220   0.32200   0.00000  Uiso   1.00
O915   O     0.23185   0.22992   0.27722   0.00000  Uiso   1.00
O916   O     0.14317   0.22992   0.35217   0.00000  Uiso   1.00
C917   C     0.17887   0.01780   0.43240   0.00000  Uiso   1.00
C918   C     0.19613   0.01780   0.44700   0.00000  Uiso   1.00
O919   O     0.14315   0.02008   0.40222   0.00000  Uiso   1.00
O920   O     0.23182   0.02008   0.47717   0.00000  Uiso   1.00
C921   C     0.05387   0.10720   0.44260   0.00000  Uiso   1.00
C922   C     0.07113   0.10720   0.42800   0.00000  Uiso   1.00
O923   O     0.01815   0.10492   0.47277   0.00000  Uiso   1.00
O924   O     0.10683   0.10492   0.39782   0.00000  Uiso   1.00
C925   C     0.07113   0.14280   0.31760   0.00000  Uiso   1.00
C926   C     0.05387   0.14280   0.30300   0.00000  Uiso   1.00
O927   O     0.10685   0.14508   0.34777   0.00000  Uiso   1.00
O928   O     0.01818   0.14508   0.27282   0.00000  Uiso   1.00
Al929  Al    0.00000   0.00000   0.25000   0.00000  Uiso   1.00
Al930  Al    0.12500   0.00000   0.37500   0.00000  Uiso   1.00
Al931  Al    0.00000   0.12500   0.25000   0.00000  Uiso   1.00
Al932  Al    0.12500   0.12500   0.37500   0.00000  Uiso   1.00
O933   O     0.24932   0.06250   0.26490   0.00000  Uiso   1.00
C934   C     0.04523   0.06250   0.44990   0.00000  Uiso   1.00
C935   C     0.07975   0.06250   0.42072   0.00000  Uiso   1.00
C936   C     0.02633   0.06250   0.46585   0.00000  Uiso   1.00
C937   C     0.09865   0.06250   0.40475   0.00000  Uiso   1.00
O938   O     0.12568   0.18750   0.38990   0.00000  Uiso   1.00
C939   C     0.07977   0.18750   0.32490   0.00000  Uiso   1.00
C940   C     0.04525   0.18750   0.29572   0.00000  Uiso   1.00
C941   C     0.09868   0.18750   0.34085   0.00000  Uiso   1.00
C942   C     0.02635   0.18750   0.27975   0.00000  Uiso   1.00
O943   O     0.00068   0.18750   0.48509   0.00000  Uiso   1.00
C944   C     0.20477   0.18750   0.30010   0.00000  Uiso   1.00
C945   C     0.17025   0.18750   0.32928   0.00000  Uiso   1.00
C946   C     0.22367   0.18750   0.28415   0.00000  Uiso   1.00
C947   C     0.15135   0.18750   0.34525   0.00000  Uiso   1.00
O948   O     0.12432   0.06250   0.36010   0.00000  Uiso   1.00
C949   C     0.17022   0.06250   0.42510   0.00000  Uiso   1.00
C950   C     0.20475   0.06250   0.45427   0.00000  Uiso   1.00
C951   C     0.15133   0.06250   0.40915   0.00000  Uiso   1.00
C952   C     0.22365   0.06250   0.47025   0.00000  Uiso   1.00
C953   C     0.30387   0.01780   0.44260   0.00000  Uiso   1.00
C954   C     0.32113   0.01780   0.42800   0.00000  Uiso   1.00
O955   O     0.26815   0.02008   0.47277   0.00000  Uiso   1.00
O956   O     0.35682   0.02008   0.39782   0.00000  Uiso   1.00
C957   C     0.32113   0.23220   0.31760   0.00000  Uiso   1.00
C958   C     0.30387   0.23220   0.30300   0.00000  Uiso   1.00
O959   O     0.35685   0.22992   0.34777   0.00000  Uiso   1.00
O960   O     0.26818   0.22992   0.27282   0.00000  Uiso   1.00
C961   C     0.44613   0.14280   0.30740   0.00000  Uiso   1.00
C962   C     0.42887   0.14280   0.32200   0.00000  Uiso   1.00
O963   O     0.48185   0.14508   0.27722   0.00000  Uiso   1.00
O964   O     0.39317   0.14508   0.35217   0.00000  Uiso   1.00
C965   C     0.42887   0.10720   0.43240   0.00000  Uiso   1.00
C966   C     0.44613   0.10720   0.44700   0.00000  Uiso   1.00
O967   O     0.39315   0.10492   0.40222   0.00000  Uiso   1.00
O968   O     0.48182   0.10492   0.47717   0.00000  Uiso   1.00
C969   C     0.44613   0.23220   0.30740   0.00000  Uiso   1.00
C970   C     0.42887   0.23220   0.32200   0.00000  Uiso   1.00
O971   O     0.48185   0.22992   0.27722   0.00000  Uiso   1.00
O972   O     0.39317   0.22992   0.35217   0.00000  Uiso   1.00
C973   C     0.42887   0.01780   0.43240   0.00000  Uiso   1.00
C974   C     0.44613   0.01780   0.44700   0.00000  Uiso   1.00
O975   O     0.39315   0.02008   0.40222   0.00000  Uiso   1.00
O976   O     0.48182   0.02008   0.47717   0.00000  Uiso   1.00
C977   C     0.30387   0.10720   0.44260   0.00000  Uiso   1.00
C978   C     0.32113   0.10720   0.42800   0.00000  Uiso   1.00
O979   O     0.26815   0.10492   0.47277   0.00000  Uiso   1.00
O980   O     0.35682   0.10492   0.39782   0.00000  Uiso   1.00
C981   C     0.32113   0.14280   0.31760   0.00000  Uiso   1.00
C982   C     0.30387   0.14280   0.30300   0.00000  Uiso   1.00
O983   O     0.35685   0.14508   0.34777   0.00000  Uiso   1.00
O984   O     0.26818   0.14508   0.27282   0.00000  Uiso   1.00
Al985  Al    0.25000   0.00000   0.25000   0.00000  Uiso   1.00
Al986  Al    0.37500   0.00000   0.37500   0.00000  Uiso   1.00
Al987  Al    0.25000   0.12500   0.25000   0.00000  Uiso   1.00
Al988  Al    0.37500   0.12500   0.37500   0.00000  Uiso   1.00
O989   O     0.49932   0.06250   0.26490   0.00000  Uiso   1.00
C990   C     0.29523   0.06250   0.44990   0.00000  Uiso   1.00
C991   C     0.32975   0.06250   0.42072   0.00000  Uiso   1.00
C992   C     0.27633   0.06250   0.46585   0.00000  Uiso   1.00
C993   C     0.34865   0.06250   0.40475   0.00000  Uiso   1.00
O994   O     0.37568   0.18750   0.38990   0.00000  Uiso   1.00
C995   C     0.32977   0.18750   0.32490   0.00000  Uiso   1.00
C996   C     0.29525   0.18750   0.29572   0.00000  Uiso   1.00
C997   C     0.34868   0.18750   0.34085   0.00000  Uiso   1.00
C998   C     0.27635   0.18750   0.27975   0.00000  Uiso   1.00
O999   O     0.25068   0.18750   0.48509   0.00000  Uiso   1.00
C1000  C     0.45477   0.18750   0.30010   0.00000  Uiso   1.00
C1001  C     0.42025   0.18750   0.32928   0.00000  Uiso   1.00
C1002  C     0.47367   0.18750   0.28415   0.00000  Uiso   1.00
C1003  C     0.40135   0.18750   0.34525   0.00000  Uiso   1.00
O1004  O     0.37432   0.06250   0.36010   0.00000  Uiso   1.00
C1005  C     0.42022   0.06250   0.42510   0.00000  Uiso   1.00
C1006  C     0.45475   0.06250   0.45427   0.00000  Uiso   1.00
C1007  C     0.40133   0.06250   0.40915   0.00000  Uiso   1.00
C1008  C     0.47365   0.06250   0.47025   0.00000  Uiso   1.00
C1009  C     0.55387   0.01780   0.44260   0.00000  Uiso   1.00
C1010  C     0.57113   0.01780   0.42800   0.00000  Uiso   1.00
O1011  O     0.51815   0.02008   0.47277   0.00000  Uiso   1.00
O1012  O     0.60683   0.02008   0.39782   0.00000  Uiso   1.00
C1013  C     0.57113   0.23220   0.31760   0.00000  Uiso   1.00
C1014  C     0.55387   0.23220   0.30300   0.00000  Uiso   1.00
O1015  O     0.60685   0.22992   0.34777   0.00000  Uiso   1.00
O1016  O     0.51818   0.22992   0.27282   0.00000  Uiso   1.00
C1017  C     0.69613   0.14280   0.30740   0.00000  Uiso   1.00
C1018  C     0.67887   0.14280   0.32200   0.00000  Uiso   1.00
O1019  O     0.73185   0.14508   0.27722   0.00000  Uiso   1.00
O1020  O     0.64317   0.14508   0.35217   0.00000  Uiso   1.00
C1021  C     0.67887   0.10720   0.43240   0.00000  Uiso   1.00
C1022  C     0.69613   0.10720   0.44700   0.00000  Uiso   1.00
O1023  O     0.64315   0.10492   0.40222   0.00000  Uiso   1.00
O1024  O     0.73182   0.10492   0.47717   0.00000  Uiso   1.00
C1025  C     0.69613   0.23220   0.30740   0.00000  Uiso   1.00
C1026  C     0.67887   0.23220   0.32200   0.00000  Uiso   1.00
O1027  O     0.73185   0.22992   0.27722   0.00000  Uiso   1.00
O1028  O     0.64317   0.22992   0.35217   0.00000  Uiso   1.00
C1029  C     0.67887   0.01780   0.43240   0.00000  Uiso   1.00
C1030  C     0.69613   0.01780   0.44700   0.00000  Uiso   1.00
O1031  O     0.64315   0.02008   0.40222   0.00000  Uiso   1.00
O1032  O     0.73182   0.02008   0.47717   0.00000  Uiso   1.00
C1033  C     0.55387   0.10720   0.44260   0.00000  Uiso   1.00
C1034  C     0.57113   0.10720   0.42800   0.00000  Uiso   1.00
O1035  O     0.51815   0.10492   0.47277   0.00000  Uiso   1.00
O1036  O     0.60683   0.10492   0.39782   0.00000  Uiso   1.00
C1037  C     0.57113   0.14280   0.31760   0.00000  Uiso   1.00
C1038  C     0.55387   0.14280   0.30300   0.00000  Uiso   1.00
O1039  O     0.60685   0.14508   0.34777   0.00000  Uiso   1.00
O1040  O     0.51818   0.14508   0.27282   0.00000  Uiso   1.00
Al1041 Al    0.50000   0.00000   0.25000   0.00000  Uiso   1.00
Al1042 Al    0.62500   0.00000   0.37500   0.00000  Uiso   1.00
Al1043 Al    0.50000   0.12500   0.25000   0.00000  Uiso   1.00
Al1044 Al    0.62500   0.12500   0.37500   0.00000  Uiso   1.00
O1045  O     0.74932   0.06250   0.26490   0.00000  Uiso   1.00
C1046  C     0.54523   0.06250   0.44990   0.00000  Uiso   1.00
C1047  C     0.57975   0.06250   0.42072   0.00000  Uiso   1.00
C1048  C     0.52633   0.06250   0.46585   0.00000  Uiso   1.00
C1049  C     0.59865   0.06250   0.40475   0.00000  Uiso   1.00
O1050  O     0.62568   0.18750   0.38990   0.00000  Uiso   1.00
C1051  C     0.57977   0.18750   0.32490   0.00000  Uiso   1.00
C1052  C     0.54525   0.18750   0.29572   0.00000  Uiso   1.00
C1053  C     0.59868   0.18750   0.34085   0.00000  Uiso   1.00
C1054  C     0.52635   0.18750   0.27975   0.00000  Uiso   1.00
O1055  O     0.50068   0.18750   0.48509   0.00000  Uiso   1.00
C1056  C     0.70477   0.18750   0.30010   0.00000  Uiso   1.00
C1057  C     0.67025   0.18750   0.32928   0.00000  Uiso   1.00
C1058  C     0.72367   0.18750   0.28415   0.00000  Uiso   1.00
C1059  C     0.65135   0.18750   0.34525   0.00000  Uiso   1.00
O1060  O     0.62432   0.06250   0.36010   0.00000  Uiso   1.00
C1061  C     0.67022   0.06250   0.42510   0.00000  Uiso   1.00
C1062  C     0.70475   0.06250   0.45427   0.00000  Uiso   1.00
C1063  C     0.65133   0.06250   0.40915   0.00000  Uiso   1.00
C1064  C     0.72365   0.06250   0.47025   0.00000  Uiso   1.00
C1065  C     0.80387   0.01780   0.44260   0.00000  Uiso   1.00
C1066  C     0.82113   0.01780   0.42800   0.00000  Uiso   1.00
O1067  O     0.76815   0.02008   0.47277   0.00000  Uiso   1.00
O1068  O     0.85683   0.02008   0.39782   0.00000  Uiso   1.00
C1069  C     0.82113   0.23220   0.31760   0.00000  Uiso   1.00
C1070  C     0.80387   0.23220   0.30300   0.00000  Uiso   1.00
O1071  O     0.85685   0.22992   0.34777   0.00000  Uiso   1.00
O1072  O     0.76818   0.22992   0.27282   0.00000  Uiso   1.00
C1073  C     0.94613   0.14280   0.30740   0.00000  Uiso   1.00
C1074  C     0.92887   0.14280   0.32200   0.00000  Uiso   1.00
O1075  O     0.98185   0.14508   0.27722   0.00000  Uiso   1.00
O1076  O     0.89317   0.14508   0.35217   0.00000  Uiso   1.00
C1077  C     0.92887   0.10720   0.43240   0.00000  Uiso   1.00
C1078  C     0.94613   0.10720   0.44700   0.00000  Uiso   1.00
O1079  O     0.89315   0.10492   0.40222   0.00000  Uiso   1.00
O1080  O     0.98182   0.10492   0.47717   0.00000  Uiso   1.00
C1081  C     0.94613   0.23220   0.30740   0.00000  Uiso   1.00
C1082  C     0.92887   0.23220   0.32200   0.00000  Uiso   1.00
O1083  O     0.98185   0.22992   0.27722   0.00000  Uiso   1.00
O1084  O     0.89317   0.22992   0.35217   0.00000  Uiso   1.00
C1085  C     0.92887   0.01780   0.43240   0.00000  Uiso   1.00
C1086  C     0.94613   0.01780   0.44700   0.00000  Uiso   1.00
O1087  O     0.89315   0.02008   0.40222   0.00000  Uiso   1.00
O1088  O     0.98182   0.02008   0.47717   0.00000  Uiso   1.00
C1089  C     0.80387   0.10720   0.44260   0.00000  Uiso   1.00
C1090  C     0.82113   0.10720   0.42800   0.00000  Uiso   1.00
O1091  O     0.76815   0.10492   0.47277   0.00000  Uiso   1.00
O1092  O     0.85683   0.10492   0.39782   0.00000  Uiso   1.00
C1093  C     0.82113   0.14280   0.31760   0.00000  Uiso   1.00
C1094  C     0.80387   0.14280   0.30300   0.00000  Uiso   1.00
O1095  O     0.85685   0.14508   0.34777   0.00000  Uiso   1.00
O1096  O     0.76818   0.14508   0.27282   0.00000  Uiso   1.00
Al1097 Al    0.75000   0.00000   0.25000   0.00000  Uiso   1.00
Al1098 Al    0.87500   0.00000   0.37500   0.00000  Uiso   1.00
Al1099 Al    0.75000   0.12500   0.25000   0.00000  Uiso   1.00
Al1100 Al    0.87500   0.12500   0.37500   0.00000  Uiso   1.00
O1101  O     0.99932   0.06250   0.26490   0.00000  Uiso   1.00
C1102  C     0.79523   0.06250   0.44990   0.00000  Uiso   1.00
C1103  C     0.82975   0.06250   0.42072   0.00000  Uiso   1.00
C1104  C     0.77633   0.06250   0.46585   0.00000  Uiso   1.00
C1105  C     0.84865   0.06250   0.40475   0.00000  Uiso   1.00
O1106  O     0.87568   0.18750   0.38990   0.00000  Uiso   1.00
C1107  C     0.82977   0.18750   0.32490   0.00000  Uiso   1.00
C1108  C     0.79525   0.18750   0.29572   0.00000  Uiso   1.00
C1109  C     0.84867   0.18750   0.34085   0.00000  Uiso   1.00
C1110  C     0.77635   0.18750   0.27975   0.00000  Uiso   1.00
O1111  O     0.75068   0.18750   0.48509   0.00000  Uiso   1.00
C1112  C     0.95477   0.18750   0.30010   0.00000  Uiso   1.00
C1113  C     0.92025   0.18750   0.32928   0.00000  Uiso   1.00
C1114  C     0.97367   0.18750   0.28415   0.00000  Uiso   1.00
C1115  C     0.90135   0.18750   0.34525   0.00000  Uiso   1.00
O1116  O     0.87432   0.06250   0.36010   0.00000  Uiso   1.00
C1117  C     0.92022   0.06250   0.42510   0.00000  Uiso   1.00
C1118  C     0.95475   0.06250   0.45427   0.00000  Uiso   1.00
C1119  C     0.90133   0.06250   0.40915   0.00000  Uiso   1.00
C1120  C     0.97365   0.06250   0.47025   0.00000  Uiso   1.00
C1121  C     0.05387   0.26780   0.44260   0.00000  Uiso   1.00
C1122  C     0.07113   0.26780   0.42800   0.00000  Uiso   1.00
O1123  O     0.01815   0.27008   0.47277   0.00000  Uiso   1.00
O1124  O     0.10683   0.27008   0.39782   0.00000  Uiso   1.00
C1125  C     0.07113   0.48220   0.31760   0.00000  Uiso   1.00
C1126  C     0.05387   0.48220   0.30300   0.00000  Uiso   1.00
O1127  O     0.10685   0.47992   0.34777   0.00000  Uiso   1.00
O1128  O     0.01818   0.47992   0.27282   0.00000  Uiso   1.00
C1129  C     0.19613   0.39280   0.30740   0.00000  Uiso   1.00
C1130  C     0.17887   0.39280   0.32200   0.00000  Uiso   1.00
O1131  O     0.23185   0.39508   0.27722   0.00000  Uiso   1.00
O1132  O     0.14317   0.39508   0.35217   0.00000  Uiso   1.00
C1133  C     0.17887   0.35720   0.43240   0.00000  Uiso   1.00
C1134  C     0.19613   0.35720   0.44700   0.00000  Uiso   1.00
O1135  O     0.14315   0.35492   0.40222   0.00000  Uiso   1.00
O1136  O     0.23182   0.35492   0.47717   0.00000  Uiso   1.00
C1137  C     0.19613   0.48220   0.30740   0.00000  Uiso   1.00
C1138  C     0.17887   0.48220   0.32200   0.00000  Uiso   1.00
O1139  O     0.23185   0.47992   0.27722   0.00000  Uiso   1.00
O1140  O     0.14317   0.47992   0.35217   0.00000  Uiso   1.00
C1141  C     0.17887   0.26780   0.43240   0.00000  Uiso   1.00
C1142  C     0.19613   0.26780   0.44700   0.00000  Uiso   1.00
O1143  O     0.14315   0.27008   0.40222   0.00000  Uiso   1.00
O1144  O     0.23182   0.27008   0.47717   0.00000  Uiso   1.00
C1145  C     0.05387   0.35720   0.44260   0.00000  Uiso   1.00
C1146  C     0.07113   0.35720   0.42800   0.00000  Uiso   1.00
O1147  O     0.01815   0.35492   0.47277   0.00000  Uiso   1.00
O1148  O     0.10683   0.35492   0.39782   0.00000  Uiso   1.00
C1149  C     0.07113   0.39280   0.31760   0.00000  Uiso   1.00
C1150  C     0.05387   0.39280   0.30300   0.00000  Uiso   1.00
O1151  O     0.10685   0.39508   0.34777   0.00000  Uiso   1.00
O1152  O     0.01818   0.39508   0.27282   0.00000  Uiso   1.00
Al1153 Al    0.00000   0.25000   0.25000   0.00000  Uiso   1.00
Al1154 Al    0.12500   0.25000   0.37500   0.00000  Uiso   1.00
Al1155 Al    0.00000   0.37500   0.25000   0.00000  Uiso   1.00
Al1156 Al    0.12500   0.37500   0.37500   0.00000  Uiso   1.00
O1157  O     0.24932   0.31250   0.26490   0.00000  Uiso   1.00
C1158  C     0.04523   0.31250   0.44990   0.00000  Uiso   1.00
C1159  C     0.07975   0.31250   0.42072   0.00000  Uiso   1.00
C1160  C     0.02633   0.31250   0.46585   0.00000  Uiso   1.00
C1161  C     0.09865   0.31250   0.40475   0.00000  Uiso   1.00
O1162  O     0.12568   0.43750   0.38990   0.00000  Uiso   1.00
C1163  C     0.07977   0.43750   0.32490   0.00000  Uiso   1.00
C1164  C     0.04525   0.43750   0.29572   0.00000  Uiso   1.00
C1165  C     0.09868   0.43750   0.34085   0.00000  Uiso   1.00
C1166  C     0.02635   0.43750   0.27975   0.00000  Uiso   1.00
O1167  O     0.00068   0.43750   0.48509   0.00000  Uiso   1.00
C1168  C     0.20477   0.43750   0.30010   0.00000  Uiso   1.00
C1169  C     0.17025   0.43750   0.32928   0.00000  Uiso   1.00
C1170  C     0.22367   0.43750   0.28415   0.00000  Uiso   1.00
C1171  C     0.15135   0.43750   0.34525   0.00000  Uiso   1.00
O1172  O     0.12432   0.31250   0.36010   0.00000  Uiso   1.00
C1173  C     0.17022   0.31250   0.42510   0.00000  Uiso   1.00
C1174  C     0.20475   0.31250   0.45427   0.00000  Uiso   1.00
C1175  C     0.15133   0.31250   0.40915   0.00000  Uiso   1.00
C1176  C     0.22365   0.31250   0.47025   0.00000  Uiso   1.00
C1177  C     0.30387   0.26780   0.44260   0.00000  Uiso   1.00
C1178  C     0.32113   0.26780   0.42800   0.00000  Uiso   1.00
O1179  O     0.26815   0.27008   0.47277   0.00000  Uiso   1.00
O1180  O     0.35682   0.27008   0.39782   0.00000  Uiso   1.00
C1181  C     0.32113   0.48220   0.31760   0.00000  Uiso   1.00
C1182  C     0.30387   0.48220   0.30300   0.00000  Uiso   1.00
O1183  O     0.35685   0.47992   0.34777   0.00000  Uiso   1.00
O1184  O     0.26818   0.47992   0.27282   0.00000  Uiso   1.00
C1185  C     0.44613   0.39280   0.30740   0.00000  Uiso   1.00
C1186  C     0.42887   0.39280   0.32200   0.00000  Uiso   1.00
O1187  O     0.48185   0.39508   0.27722   0.00000  Uiso   1.00
O1188  O     0.39317   0.39508   0.35217   0.00000  Uiso   1.00
C1189  C     0.42887   0.35720   0.43240   0.00000  Uiso   1.00
C1190  C     0.44613   0.35720   0.44700   0.00000  Uiso   1.00
O1191  O     0.39315   0.35492   0.40222   0.00000  Uiso   1.00
O1192  O     0.48182   0.35492   0.47717   0.00000  Uiso   1.00
C1193  C     0.44613   0.48220   0.30740   0.00000  Uiso   1.00
C1194  C     0.42887   0.48220   0.32200   0.00000  Uiso   1.00
O1195  O     0.48185   0.47992   0.27722   0.00000  Uiso   1.00
O1196  O     0.39317   0.47992   0.35217   0.00000  Uiso   1.00
C1197  C     0.42887   0.26780   0.43240   0.00000  Uiso   1.00
C1198  C     0.44613   0.26780   0.44700   0.00000  Uiso   1.00
O1199  O     0.39315   0.27008   0.40222   0.00000  Uiso   1.00
O1200  O     0.48182   0.27008   0.47717   0.00000  Uiso   1.00
C1201  C     0.30387   0.35720   0.44260   0.00000  Uiso   1.00
C1202  C     0.32113   0.35720   0.42800   0.00000  Uiso   1.00
O1203  O     0.26815   0.35492   0.47277   0.00000  Uiso   1.00
O1204  O     0.35682   0.35492   0.39782   0.00000  Uiso   1.00
C1205  C     0.32113   0.39280   0.31760   0.00000  Uiso   1.00
C1206  C     0.30387   0.39280   0.30300   0.00000  Uiso   1.00
O1207  O     0.35685   0.39508   0.34777   0.00000  Uiso   1.00
O1208  O     0.26818   0.39508   0.27282   0.00000  Uiso   1.00
Al1209 Al    0.25000   0.25000   0.25000   0.00000  Uiso   1.00
Al1210 Al    0.37500   0.25000   0.37500   0.00000  Uiso   1.00
Al1211 Al    0.25000   0.37500   0.25000   0.00000  Uiso   1.00
Al1212 Al    0.37500   0.37500   0.37500   0.00000  Uiso   1.00
O1213  O     0.49932   0.31250   0.26490   0.00000  Uiso   1.00
C1214  C     0.29523   0.31250   0.44990   0.00000  Uiso   1.00
C1215  C     0.32975   0.31250   0.42072   0.00000  Uiso   1.00
C1216  C     0.27633   0.31250   0.46585   0.00000  Uiso   1.00
C1217  C     0.34865   0.31250   0.40475   0.00000  Uiso   1.00
O1218  O     0.37568   0.43750   0.38990   0.00000  Uiso   1.00
C1219  C     0.32977   0.43750   0.32490   0.00000  Uiso   1.00
C1220  C     0.29525   0.43750   0.29572   0.00000  Uiso   1.00
C1221  C     0.34868   0.43750   0.34085   0.00000  Uiso   1.00
C1222  C     0.27635   0.43750   0.27975   0.00000  Uiso   1.00
O1223  O     0.25068   0.43750   0.48509   0.00000  Uiso   1.00
C1224  C     0.45477   0.43750   0.30010   0.00000  Uiso   1.00
C1225  C     0.42025   0.43750   0.32928   0.00000  Uiso   1.00
C1226  C     0.47367   0.43750   0.28415   0.00000  Uiso   1.00
C1227  C     0.40135   0.43750   0.34525   0.00000  Uiso   1.00
O1228  O     0.37432   0.31250   0.36010   0.00000  Uiso   1.00
C1229  C     0.42022   0.31250   0.42510   0.00000  Uiso   1.00
C1230  C     0.45475   0.31250   0.45427   0.00000  Uiso   1.00
C1231  C     0.40133   0.31250   0.40915   0.00000  Uiso   1.00
C1232  C     0.47365   0.31250   0.47025   0.00000  Uiso   1.00
C1233  C     0.55387   0.26780   0.44260   0.00000  Uiso   1.00
C1234  C     0.57113   0.26780   0.42800   0.00000  Uiso   1.00
O1235  O     0.51815   0.27008   0.47277   0.00000  Uiso   1.00
O1236  O     0.60683   0.27008   0.39782   0.00000  Uiso   1.00
C1237  C     0.57113   0.48220   0.31760   0.00000  Uiso   1.00
C1238  C     0.55387   0.48220   0.30300   0.00000  Uiso   1.00
O1239  O     0.60685   0.47992   0.34777   0.00000  Uiso   1.00
O1240  O     0.51818   0.47992   0.27282   0.00000  Uiso   1.00
C1241  C     0.69613   0.39280   0.30740   0.00000  Uiso   1.00
C1242  C     0.67887   0.39280   0.32200   0.00000  Uiso   1.00
O1243  O     0.73185   0.39508   0.27722   0.00000  Uiso   1.00
O1244  O     0.64317   0.39508   0.35217   0.00000  Uiso   1.00
C1245  C     0.67887   0.35720   0.43240   0.00000  Uiso   1.00
C1246  C     0.69613   0.35720   0.44700   0.00000  Uiso   1.00
O1247  O     0.64315   0.35492   0.40222   0.00000  Uiso   1.00
O1248  O     0.73182   0.35492   0.47717   0.00000  Uiso   1.00
C1249  C     0.69613   0.48220   0.30740   0.00000  Uiso   1.00
C1250  C     0.67887   0.48220   0.32200   0.00000  Uiso   1.00
O1251  O     0.73185   0.47992   0.27722   0.00000  Uiso   1.00
O1252  O     0.64317   0.47992   0.35217   0.00000  Uiso   1.00
C1253  C     0.67887   0.26780   0.43240   0.00000  Uiso   1.00
C1254  C     0.69613   0.26780   0.44700   0.00000  Uiso   1.00
O1255  O     0.64315   0.27008   0.40222   0.00000  Uiso   1.00
O1256  O     0.73182   0.27008   0.47717   0.00000  Uiso   1.00
C1257  C     0.55387   0.35720   0.44260   0.00000  Uiso   1.00
C1258  C     0.57113   0.35720   0.42800   0.00000  Uiso   1.00
O1259  O     0.51815   0.35492   0.47277   0.00000  Uiso   1.00
O1260  O     0.60683   0.35492   0.39782   0.00000  Uiso   1.00
C1261  C     0.57113   0.39280   0.31760   0.00000  Uiso   1.00
C1262  C     0.55387   0.39280   0.30300   0.00000  Uiso   1.00
O1263  O     0.60685   0.39508   0.34777   0.00000  Uiso   1.00
O1264  O     0.51818   0.39508   0.27282   0.00000  Uiso   1.00
Al1265 Al    0.50000   0.25000   0.25000   0.00000  Uiso   1.00
Al1266 Al    0.62500   0.25000   0.37500   0.00000  Uiso   1.00
Al1267 Al    0.50000   0.37500   0.25000   0.00000  Uiso   1.00
Al1268 Al    0.62500   0.37500   0.37500   0.00000  Uiso   1.00
O1269  O     0.74932   0.31250   0.26490   0.00000  Uiso   1.00
C1270  C     0.54523   0.31250   0.44990   0.00000  Uiso   1.00
C1271  C     0.57975   0.31250   0.42072   0.00000  Uiso   1.00
C1272  C     0.52633   0.31250   0.46585   0.00000  Uiso   1.00
C1273  C     0.59865   0.31250   0.40475   0.00000  Uiso   1.00
O1274  O     0.62568   0.43750   0.38990   0.00000  Uiso   1.00
C1275  C     0.57977   0.43750   0.32490   0.00000  Uiso   1.00
C1276  C     0.54525   0.43750   0.29572   0.00000  Uiso   1.00
C1277  C     0.59868   0.43750   0.34085   0.00000  Uiso   1.00
C1278  C     0.52635   0.43750   0.27975   0.00000  Uiso   1.00
O1279  O     0.50068   0.43750   0.48509   0.00000  Uiso   1.00
C1280  C     0.70477   0.43750   0.30010   0.00000  Uiso   1.00
C1281  C     0.67025   0.43750   0.32928   0.00000  Uiso   1.00
C1282  C     0.72367   0.43750   0.28415   0.00000  Uiso   1.00
C1283  C     0.65135   0.43750   0.34525   0.00000  Uiso   1.00
O1284  O     0.62432   0.31250   0.36010   0.00000  Uiso   1.00
C1285  C     0.67022   0.31250   0.42510   0.00000  Uiso   1.00
C1286  C     0.70475   0.31250   0.45427   0.00000  Uiso   1.00
C1287  C     0.65133   0.31250   0.40915   0.00000  Uiso   1.00
C1288  C     0.72365   0.31250   0.47025   0.00000  Uiso   1.00
C1289  C     0.80387   0.26780   0.44260   0.00000  Uiso   1.00
C1290  C     0.82113   0.26780   0.42800   0.00000  Uiso   1.00
O1291  O     0.76815   0.27008   0.47277   0.00000  Uiso   1.00
O1292  O     0.85683   0.27008   0.39782   0.00000  Uiso   1.00
C1293  C     0.82113   0.48220   0.31760   0.00000  Uiso   1.00
C1294  C     0.80387   0.48220   0.30300   0.00000  Uiso   1.00
O1295  O     0.85685   0.47992   0.34777   0.00000  Uiso   1.00
O1296  O     0.76818   0.47992   0.27282   0.00000  Uiso   1.00
C1297  C     0.94613   0.39280   0.30740   0.00000  Uiso   1.00
C1298  C     0.92887   0.39280   0.32200   0.00000  Uiso   1.00
O1299  O     0.98185   0.39508   0.27722   0.00000  Uiso   1.00
O1300  O     0.89317   0.39508   0.35217   0.00000  Uiso   1.00
C1301  C     0.92887   0.35720   0.43240   0.00000  Uiso   1.00
C1302  C     0.94613   0.35720   0.44700   0.00000  Uiso   1.00
O1303  O     0.89315   0.35492   0.40222   0.00000  Uiso   1.00
O1304  O     0.98182   0.35492   0.47717   0.00000  Uiso   1.00
C1305  C     0.94613   0.48220   0.30740   0.00000  Uiso   1.00
C1306  C     0.92887   0.48220   0.32200   0.00000  Uiso   1.00
O1307  O     0.98185   0.47992   0.27722   0.00000  Uiso   1.00
O1308  O     0.89317   0.47992   0.35217   0.00000  Uiso   1.00
C1309  C     0.92887   0.26780   0.43240   0.00000  Uiso   1.00
C1310  C     0.94613   0.26780   0.44700   0.00000  Uiso   1.00
O1311  O     0.89315   0.27008   0.40222   0.00000  Uiso   1.00
O1312  O     0.98182   0.27008   0.47717   0.00000  Uiso   1.00
C1313  C     0.80387   0.35720   0.44260   0.00000  Uiso   1.00
C1314  C     0.82113   0.35720   0.42800   0.00000  Uiso   1.00
O1315  O     0.76815   0.35492   0.47277   0.00000  Uiso   1.00
O1316  O     0.85683   0.35492   0.39782   0.00000  Uiso   1.00
C1317  C     0.82113   0.39280   0.31760   0.00000  Uiso   1.00
C1318  C     0.80387   0.39280   0.30300   0.00000  Uiso   1.00
O1319  O     0.85685   0.39508   0.34777   0.00000  Uiso   1.00
O1320  O     0.76818   0.39508   0.27282   0.00000  Uiso   1.00
Al1321 Al    0.75000   0.25000   0.25000   0.00000  Uiso   1.00
Al1322 Al    0.87500   0.25000   0.37500   0.00000  Uiso   1.00
Al1323 Al    0.75000   0.37500   0.25000   0.00000  Uiso   1.00
Al1324 Al    0.87500   0.37500   0.37500   0.00000  Uiso   1.00
O1325  O     0.99932   0.31250   0.26490   0.00000  Uiso   1.00
C1326  C     0.79523   0.31250   0.44990   0.00000  Uiso   1.00
C1327  C     0.82975   0.31250   0.42072   0.00000  Uiso   1.00
C1328  C     0.77633   0.31250   0.46585   0.00000  Uiso   1.00
C1329  C     0.84865   0.31250   0.40475   0.00000  Uiso   1.00
O1330  O     0.87568   0.43750   0.38990   0.00000  Uiso   1.00
C1331  C     0.82977   0.43750   0.32490   0.00000  Uiso   1.00
C1332  C     0.79525   0.43750   0.29572   0.00000  Uiso   1.00
C1333  C     0.84867   0.43750   0.34085   0.00000  Uiso   1.00
C1334  C     0.77635   0.43750   0.27975   0.00000  Uiso   1.00
O1335  O     0.75068   0.43750   0.48509   0.00000  Uiso   1.00
C1336  C     0.95477   0.43750   0.30010   0.00000  Uiso   1.00
C1337  C     0.92025   0.43750   0.32928   0.00000  Uiso   1.00
C1338  C     0.97367   0.43750   0.28415   0.00000  Uiso   1.00
C1339  C     0.90135   0.43750   0.34525   0.00000  Uiso   1.00
O1340  O     0.87432   0.31250   0.36010   0.00000  Uiso   1.00
C1341  C     0.92022   0.31250   0.42510   0.00000  Uiso   1.00
C1342  C     0.95475   0.31250   0.45427   0.00000  Uiso   1.00
C1343  C     0.90133   0.31250   0.40915   0.00000  Uiso   1.00
C1344  C     0.97365   0.31250   0.47025   0.00000  Uiso   1.00
C1345  C     0.05387   0.51780   0.44260   0.00000  Uiso   1.00
C1346  C     0.07113   0.51780   0.42800   0.00000  Uiso   1.00
O1347  O     0.01815   0.52008   0.47277   0.00000  Uiso   1.00
O1348  O     0.10683   0.52008   0.39782   0.00000  Uiso   1.00
C1349  C     0.07113   0.73220   0.31760   0.00000  Uiso   1.00
C1350  C     0.05387   0.73220   0.30300   0.00000  Uiso   1.00
O1351  O     0.10685   0.72992   0.34777   0.00000  Uiso   1.00
O1352  O     0.01818   0.72992   0.27282   0.00000  Uiso   1.00
C1353  C     0.19613   0.64280   0.30740   0.00000  Uiso   1.00
C1354  C     0.17887   0.64280   0.32200   0.00000  Uiso   1.00
O1355  O     0.23185   0.64508   0.27722   0.00000  Uiso   1.00
O1356  O     0.14317   0.64508   0.35217   0.00000  Uiso   1.00
C1357  C     0.17887   0.60720   0.43240   0.00000  Uiso   1.00
C1358  C     0.19613   0.60720   0.44700   0.00000  Uiso   1.00
O1359  O     0.14315   0.60492   0.40222   0.00000  Uiso   1.00
O1360  O     0.23182   0.60492   0.47717   0.00000  Uiso   1.00
C1361  C     0.19613   0.73220   0.30740   0.00000  Uiso   1.00
C1362  C     0.17887   0.73220   0.32200   0.00000  Uiso   1.00
O1363  O     0.23185   0.72992   0.27722   0.00000  Uiso   1.00
O1364  O     0.14317   0.72992   0.35217   0.00000  Uiso   1.00
C1365  C     0.17887   0.51780   0.43240   0.00000  Uiso   1.00
C1366  C     0.19613   0.51780   0.44700   0.00000  Uiso   1.00
O1367  O     0.14315   0.52008   0.40222   0.00000  Uiso   1.00
O1368  O     0.23182   0.52008   0.47717   0.00000  Uiso   1.00
C1369  C     0.05387   0.60720   0.44260   0.00000  Uiso   1.00
C1370  C     0.07113   0.60720   0.42800   0.00000  Uiso   1.00
O1371  O     0.01815   0.60492   0.47277   0.00000  Uiso   1.00
O1372  O     0.10683   0.60492   0.39782   0.00000  Uiso   1.00
C1373  C     0.07113   0.64280   0.31760   0.00000  Uiso   1.00
C1374  C     0.05387   0.64280   0.30300   0.00000  Uiso   1.00
O1375  O     0.10685   0.64508   0.34777   0.00000  Uiso   1.00
O1376  O     0.01818   0.64508   0.27282   0.00000  Uiso   1.00
Al1377 Al    0.00000   0.50000   0.25000   0.00000  Uiso   1.00
Al1378 Al    0.12500   0.50000   0.37500   0.00000  Uiso   1.00
Al1379 Al    0.00000   0.62500   0.25000   0.00000  Uiso   1.00
Al1380 Al    0.12500   0.62500   0.37500   0.00000  Uiso   1.00
O1381  O     0.24932   0.56250   0.26490   0.00000  Uiso   1.00
C1382  C     0.04523   0.56250   0.44990   0.00000  Uiso   1.00
C1383  C     0.07975   0.56250   0.42072   0.00000  Uiso   1.00
C1384  C     0.02633   0.56250   0.46585   0.00000  Uiso   1.00
C1385  C     0.09865   0.56250   0.40475   0.00000  Uiso   1.00
O1386  O     0.12568   0.68750   0.38990   0.00000  Uiso   1.00
C1387  C     0.07977   0.68750   0.32490   0.00000  Uiso   1.00
C1388  C     0.04525   0.68750   0.29572   0.00000  Uiso   1.00
C1389  C     0.09868   0.68750   0.34085   0.00000  Uiso   1.00
C1390  C     0.02635   0.68750   0.27975   0.00000  Uiso   1.00
O1391  O     0.00068   0.68750   0.48509   0.00000  Uiso   1.00
C1392  C     0.20477   0.68750   0.30010   0.00000  Uiso   1.00
C1393  C     0.17025   0.68750   0.32928   0.00000  Uiso   1.00
C1394  C     0.22367   0.68750   0.28415   0.00000  Uiso   1.00
C1395  C     0.15135   0.68750   0.34525   0.00000  Uiso   1.00
O1396  O     0.12432   0.56250   0.36010   0.00000  Uiso   1.00
C1397  C     0.17022   0.56250   0.42510   0.00000  Uiso   1.00
C1398  C     0.20475   0.56250   0.45427   0.00000  Uiso   1.00
C1399  C     0.15133   0.56250   0.40915   0.00000  Uiso   1.00
C1400  C     0.22365   0.56250   0.47025   0.00000  Uiso   1.00
C1401  C     0.30387   0.51780   0.44260   0.00000  Uiso   1.00
C1402  C     0.32113   0.51780   0.42800   0.00000  Uiso   1.00
O1403  O     0.26815   0.52008   0.47277   0.00000  Uiso   1.00
O1404  O     0.35682   0.52008   0.39782   0.00000  Uiso   1.00
C1405  C     0.32113   0.73220   0.31760   0.00000  Uiso   1.00
C1406  C     0.30387   0.73220   0.30300   0.00000  Uiso   1.00
O1407  O     0.35685   0.72992   0.34777   0.00000  Uiso   1.00
O1408  O     0.26818   0.72992   0.27282   0.00000  Uiso   1.00
C1409  C     0.44613   0.64280   0.30740   0.00000  Uiso   1.00
C1410  C     0.42887   0.64280   0.32200   0.00000  Uiso   1.00
O1411  O     0.48185   0.64508   0.27722   0.00000  Uiso   1.00
O1412  O     0.39317   0.64508   0.35217   0.00000  Uiso   1.00
C1413  C     0.42887   0.60720   0.43240   0.00000  Uiso   1.00
C1414  C     0.44613   0.60720   0.44700   0.00000  Uiso   1.00
O1415  O     0.39315   0.60492   0.40222   0.00000  Uiso   1.00
O1416  O     0.48182   0.60492   0.47717   0.00000  Uiso   1.00
C1417  C     0.44613   0.73220   0.30740   0.00000  Uiso   1.00
C1418  C     0.42887   0.73220   0.32200   0.00000  Uiso   1.00
O1419  O     0.48185   0.72992   0.27722   0.00000  Uiso   1.00
O1420  O     0.39317   0.72992   0.35217   0.00000  Uiso   1.00
C1421  C     0.42887   0.51780   0.43240   0.00000  Uiso   1.00
C1422  C     0.44613   0.51780   0.44700   0.00000  Uiso   1.00
O1423  O     0.39315   0.52008   0.40222   0.00000  Uiso   1.00
O1424  O     0.48182   0.52008   0.47717   0.00000  Uiso   1.00
C1425  C     0.30387   0.60720   0.44260   0.00000  Uiso   1.00
C1426  C     0.32113   0.60720   0.42800   0.00000  Uiso   1.00
O1427  O     0.26815   0.60492   0.47277   0.00000  Uiso   1.00
O1428  O     0.35682   0.60492   0.39782   0.00000  Uiso   1.00
C1429  C     0.32113   0.64280   0.31760   0.00000  Uiso   1.00
C1430  C     0.30387   0.64280   0.30300   0.00000  Uiso   1.00
O1431  O     0.35685   0.64508   0.34777   0.00000  Uiso   1.00
O1432  O     0.26818   0.64508   0.27282   0.00000  Uiso   1.00
Al1433 Al    0.25000   0.50000   0.25000   0.00000  Uiso   1.00
Al1434 Al    0.37500   0.50000   0.37500   0.00000  Uiso   1.00
Al1435 Al    0.25000   0.62500   0.25000   0.00000  Uiso   1.00
Al1436 Al    0.37500   0.62500   0.37500   0.00000  Uiso   1.00
O1437  O     0.49932   0.56250   0.26490   0.00000  Uiso   1.00
C1438  C     0.29523   0.56250   0.44990   0.00000  Uiso   1.00
C1439  C     0.32975   0.56250   0.42072   0.00000  Uiso   1.00
C1440  C     0.27633   0.56250   0.46585   0.00000  Uiso   1.00
C1441  C     0.34865   0.56250   0.40475   0.00000  Uiso   1.00
O1442  O     0.37568   0.68750   0.38990   0.00000  Uiso   1.00
C1443  C     0.32977   0.68750   0.32490   0.00000  Uiso   1.00
C1444  C     0.29525   0.68750   0.29572   0.00000  Uiso   1.00
C1445  C     0.34868   0.68750   0.34085   0.00000  Uiso   1.00
C1446  C     0.27635   0.68750   0.27975   0.00000  Uiso   1.00
O1447  O     0.25068   0.68750   0.48509   0.00000  Uiso   1.00
C1448  C     0.45477   0.68750   0.30010   0.00000  Uiso   1.00
C1449  C     0.42025   0.68750   0.32928   0.00000  Uiso   1.00
C1450  C     0.47367   0.68750   0.28415   0.00000  Uiso   1.00
C1451  C     0.40135   0.68750   0.34525   0.00000  Uiso   1.00
O1452  O     0.37432   0.56250   0.36010   0.00000  Uiso   1.00
C1453  C     0.42022   0.56250   0.42510   0.00000  Uiso   1.00
C1454  C     0.45475   0.56250   0.45427   0.00000  Uiso   1.00
C1455  C     0.40133   0.56250   0.40915   0.00000  Uiso   1.00
C1456  C     0.47365   0.56250   0.47025   0.00000  Uiso   1.00
C1457  C     0.55387   0.51780   0.44260   0.00000  Uiso   1.00
C1458  C     0.57113   0.51780   0.42800   0.00000  Uiso   1.00
O1459  O     0.51815   0.52008   0.47277   0.00000  Uiso   1.00
O1460  O     0.60683   0.52008   0.39782   0.00000  Uiso   1.00
C1461  C     0.57113   0.73220   0.31760   0.00000  Uiso   1.00
C1462  C     0.55387   0.73220   0.30300   0.00000  Uiso   1.00
O1463  O     0.60685   0.72992   0.34777   0.00000  Uiso   1.00
O1464  O     0.51818   0.72992   0.27282   0.00000  Uiso   1.00
C1465  C     0.69613   0.64280   0.30740   0.00000  Uiso   1.00
C1466  C     0.67887   0.64280   0.32200   0.00000  Uiso   1.00
O1467  O     0.73185   0.64508   0.27722   0.00000  Uiso   1.00
O1468  O     0.64317   0.64508   0.35217   0.00000  Uiso   1.00
C1469  C     0.67887   0.60720   0.43240   0.00000  Uiso   1.00
C1470  C     0.69613   0.60720   0.44700   0.00000  Uiso   1.00
O1471  O     0.64315   0.60492   0.40222   0.00000  Uiso   1.00
O1472  O     0.73182   0.60492   0.47717   0.00000  Uiso   1.00
C1473  C     0.69613   0.73220   0.30740   0.00000  Uiso   1.00
C1474  C     0.67887   0.73220   0.32200   0.00000  Uiso   1.00
O1475  O     0.73185   0.72992   0.27722   0.00000  Uiso   1.00
O1476  O     0.64317   0.72992   0.35217   0.00000  Uiso   1.00
C1477  C     0.67887   0.51780   0.43240   0.00000  Uiso   1.00
C1478  C     0.69613   0.51780   0.44700   0.00000  Uiso   1.00
O1479  O     0.64315   0.52008   0.40222   0.00000  Uiso   1.00
O1480  O     0.73182   0.52008   0.47717   0.00000  Uiso   1.00
C1481  C     0.55387   0.60720   0.44260   0.00000  Uiso   1.00
C1482  C     0.57113   0.60720   0.42800   0.00000  Uiso   1.00
O1483  O     0.51815   0.60492   0.47277   0.00000  Uiso   1.00
O1484  O     0.60683   0.60492   0.39782   0.00000  Uiso   1.00
C1485  C     0.57113   0.64280   0.31760   0.00000  Uiso   1.00
C1486  C     0.55387   0.64280   0.30300   0.00000  Uiso   1.00
O1487  O     0.60685   0.64508   0.34777   0.00000  Uiso   1.00
O1488  O     0.51818   0.64508   0.27282   0.00000  Uiso   1.00
Al1489 Al    0.50000   0.50000   0.25000   0.00000  Uiso   1.00
Al1490 Al    0.62500   0.50000   0.37500   0.00000  Uiso   1.00
Al1491 Al    0.50000   0.62500   0.25000   0.00000  Uiso   1.00
Al1492 Al    0.62500   0.62500   0.37500   0.00000  Uiso   1.00
O1493  O     0.74932   0.56250   0.26490   0.00000  Uiso   1.00
C1494  C     0.54523   0.56250   0.44990   0.00000  Uiso   1.00
C1495  C     0.57975   0.56250   0.42072   0.00000  Uiso   1.00
C1496  C     0.52633   0.56250   0.46585   0.00000  Uiso   1.00
C1497  C     0.59865   0.56250   0.40475   0.00000  Uiso   1.00
O1498  O     0.62568   0.68750   0.38990   0.00000  Uiso   1.00
C1499  C     0.57977   0.68750   0.32490   0.00000  Uiso   1.00
C1500  C     0.54525   0.68750   0.29572   0.00000  Uiso   1.00
C1501  C     0.59868   0.68750   0.34085   0.00000  Uiso   1.00
C1502  C     0.52635   0.68750   0.27975   0.00000  Uiso   1.00
O1503  O     0.50068   0.68750   0.48509   0.00000  Uiso   1.00
C1504  C     0.70477   0.68750   0.30010   0.00000  Uiso   1.00
C1505  C     0.67025   0.68750   0.32928   0.00000  Uiso   1.00
C1506  C     0.72367   0.68750   0.28415   0.00000  Uiso   1.00
C1507  C     0.65135   0.68750   0.34525   0.00000  Uiso   1.00
O1508  O     0.62432   0.56250   0.36010   0.00000  Uiso   1.00
C1509  C     0.67022   0.56250   0.42510   0.00000  Uiso   1.00
C1510  C     0.70475   0.56250   0.45427   0.00000  Uiso   1.00
C1511  C     0.65133   0.56250   0.40915   0.00000  Uiso   1.00
C1512  C     0.72365   0.56250   0.47025   0.00000  Uiso   1.00
C1513  C     0.80387   0.51780   0.44260   0.00000  Uiso   1.00
C1514  C     0.82113   0.51780   0.42800   0.00000  Uiso   1.00
O1515  O     0.76815   0.52008   0.47277   0.00000  Uiso   1.00
O1516  O     0.85683   0.52008   0.39782   0.00000  Uiso   1.00
C1517  C     0.82113   0.73220   0.31760   0.00000  Uiso   1.00
C1518  C     0.80387   0.73220   0.30300   0.00000  Uiso   1.00
O1519  O     0.85685   0.72992   0.34777   0.00000  Uiso   1.00
O1520  O     0.76818   0.72992   0.27282   0.00000  Uiso   1.00
C1521  C     0.94613   0.64280   0.30740   0.00000  Uiso   1.00
C1522  C     0.92887   0.64280   0.32200   0.00000  Uiso   1.00
O1523  O     0.98185   0.64508   0.27722   0.00000  Uiso   1.00
O1524  O     0.89317   0.64508   0.35217   0.00000  Uiso   1.00
C1525  C     0.92887   0.60720   0.43240   0.00000  Uiso   1.00
C1526  C     0.94613   0.60720   0.44700   0.00000  Uiso   1.00
O1527  O     0.89315   0.60492   0.40222   0.00000  Uiso   1.00
O1528  O     0.98182   0.60492   0.47717   0.00000  Uiso   1.00
C1529  C     0.94613   0.73220   0.30740   0.00000  Uiso   1.00
C1530  C     0.92887   0.73220   0.32200   0.00000  Uiso   1.00
O1531  O     0.98185   0.72992   0.27722   0.00000  Uiso   1.00
O1532  O     0.89317   0.72992   0.35217   0.00000  Uiso   1.00
C1533  C     0.92887   0.51780   0.43240   0.00000  Uiso   1.00
C1534  C     0.94613   0.51780   0.44700   0.00000  Uiso   1.00
O1535  O     0.89315   0.52008   0.40222   0.00000  Uiso   1.00
O1536  O     0.98182   0.52008   0.47717   0.00000  Uiso   1.00
C1537  C     0.80387   0.60720   0.44260   0.00000  Uiso   1.00
C1538  C     0.82113   0.60720   0.42800   0.00000  Uiso   1.00
O1539  O     0.76815   0.60492   0.47277   0.00000  Uiso   1.00
O1540  O     0.85683   0.60492   0.39782   0.00000  Uiso   1.00
C1541  C     0.82113   0.64280   0.31760   0.00000  Uiso   1.00
C1542  C     0.80387   0.64280   0.30300   0.00000  Uiso   1.00
O1543  O     0.85685   0.64508   0.34777   0.00000  Uiso   1.00
O1544  O     0.76818   0.64508   0.27282   0.00000  Uiso   1.00
Al1545 Al    0.75000   0.50000   0.25000   0.00000  Uiso   1.00
Al1546 Al    0.87500   0.50000   0.37500   0.00000  Uiso   1.00
Al1547 Al    0.75000   0.62500   0.25000   0.00000  Uiso   1.00
Al1548 Al    0.87500   0.62500   0.37500   0.00000  Uiso   1.00
O1549  O     0.99932   0.56250   0.26490   0.00000  Uiso   1.00
C1550  C     0.79523   0.56250   0.44990   0.00000  Uiso   1.00
C1551  C     0.82975   0.56250   0.42072   0.00000  Uiso   1.00
C1552  C     0.77633   0.56250   0.46585   0.00000  Uiso   1.00
C1553  C     0.84865   0.56250   0.40475   0.00000  Uiso   1.00
O1554  O     0.87568   0.68750   0.38990   0.00000  Uiso   1.00
C1555  C     0.82977   0.68750   0.32490   0.00000  Uiso   1.00
C1556  C     0.79525   0.68750   0.29572   0.00000  Uiso   1.00
C1557  C     0.84867   0.68750   0.34085   0.00000  Uiso   1.00
C1558  C     0.77635   0.68750   0.27975   0.00000  Uiso   1.00
O1559  O     0.75068   0.68750   0.48509   0.00000  Uiso   1.00
C1560  C     0.95477   0.68750   0.30010   0.00000  Uiso   1.00
C1561  C     0.92025   0.68750   0.32928   0.00000  Uiso   1.00
C1562  C     0.97367   0.68750   0.28415   0.00000  Uiso   1.00
C1563  C     0.90135   0.68750   0.34525   0.00000  Uiso   1.00
O1564  O     0.87432   0.56250   0.36010   0.00000  Uiso   1.00
C1565  C     0.92022   0.56250   0.42510   0.00000  Uiso   1.00
C1566  C     0.95475   0.56250   0.45427   0.00000  Uiso   1.00
C1567  C     0.90133   0.56250   0.40915   0.00000  Uiso   1.00
C1568  C     0.97365   0.56250   0.47025   0.00000  Uiso   1.00
C1569  C     0.05387   0.76780   0.44260   0.00000  Uiso   1.00
C1570  C     0.07113   0.76780   0.42800   0.00000  Uiso   1.00
O1571  O     0.01815   0.77008   0.47277   0.00000  Uiso   1.00
O1572  O     0.10683   0.77008   0.39782   0.00000  Uiso   1.00
C1573  C     0.07113   0.98220   0.31760   0.00000  Uiso   1.00
C1574  C     0.05387   0.98220   0.30300   0.00000  Uiso   1.00
O1575  O     0.10685   0.97992   0.34777   0.00000  Uiso   1.00
O1576  O     0.01818   0.97992   0.27282   0.00000  Uiso   1.00
C1577  C     0.19613   0.89280   0.30740   0.00000  Uiso   1.00
C1578  C     0.17887   0.89280   0.32200   0.00000  Uiso   1.00
O1579  O     0.23185   0.89508   0.27722   0.00000  Uiso   1.00
O1580  O     0.14317   0.89508   0.35217   0.00000  Uiso   1.00
C1581  C     0.17887   0.85720   0.43240   0.00000  Uiso   1.00
C1582  C     0.19613   0.85720   0.44700   0.00000  Uiso   1.00
O1583  O     0.14315   0.85492   0.40222   0.00000  Uiso   1.00
O1584  O     0.23182   0.85492   0.47717   0.00000  Uiso   1.00
C1585  C     0.19613   0.98220   0.30740   0.00000  Uiso   1.00
C1586  C     0.17887   0.98220   0.32200   0.00000  Uiso   1.00
O1587  O     0.23185   0.97992   0.27722   0.00000  Uiso   1.00
O1588  O     0.14317   0.97992   0.35217   0.00000  Uiso   1.00
C1589  C     0.17887   0.76780   0.43240   0.00000  Uiso   1.00
C1590  C     0.19613   0.76780   0.44700   0.00000  Uiso   1.00
O1591  O     0.14315   0.77008   0.40222   0.00000  Uiso   1.00
O1592  O     0.23182   0.77008   0.47717   0.00000  Uiso   1.00
C1593  C     0.05387   0.85720   0.44260   0.00000  Uiso   1.00
C1594  C     0.07113   0.85720   0.42800   0.00000  Uiso   1.00
O1595  O     0.01815   0.85492   0.47277   0.00000  Uiso   1.00
O1596  O     0.10683   0.85492   0.39782   0.00000  Uiso   1.00
C1597  C     0.07113   0.89280   0.31760   0.00000  Uiso   1.00
C1598  C     0.05387   0.89280   0.30300   0.00000  Uiso   1.00
O1599  O     0.10685   0.89508   0.34777   0.00000  Uiso   1.00
O1600  O     0.01818   0.89508   0.27282   0.00000  Uiso   1.00
Al1601 Al    0.00000   0.75000   0.25000   0.00000  Uiso   1.00
Al1602 Al    0.12500   0.75000   0.37500   0.00000  Uiso   1.00
Al1603 Al    0.00000   0.87500   0.25000   0.00000  Uiso   1.00
Al1604 Al    0.12500   0.87500   0.37500   0.00000  Uiso   1.00
O1605  O     0.24932   0.81250   0.26490   0.00000  Uiso   1.00
C1606  C     0.04523   0.81250   0.44990   0.00000  Uiso   1.00
C1607  C     0.07975   0.81250   0.42072   0.00000  Uiso   1.00
C1608  C     0.02633   0.81250   0.46585   0.00000  Uiso   1.00
C1609  C     0.09865   0.81250   0.40475   0.00000  Uiso   1.00
O1610  O     0.12568   0.93750   0.38990   0.00000  Uiso   1.00
C1611  C     0.07977   0.93750   0.32490   0.00000  Uiso   1.00
C1612  C     0.04525   0.93750   0.29572   0.00000  Uiso   1.00
C1613  C     0.09868   0.93750   0.34085   0.00000  Uiso   1.00
C1614  C     0.02635   0.93750   0.27975   0.00000  Uiso   1.00
O1615  O     0.00068   0.93750   0.48509   0.00000  Uiso   1.00
C1616  C     0.20477   0.93750   0.30010   0.00000  Uiso   1.00
C1617  C     0.17025   0.93750   0.32928   0.00000  Uiso   1.00
C1618  C     0.22367   0.93750   0.28415   0.00000  Uiso   1.00
C1619  C     0.15135   0.93750   0.34525   0.00000  Uiso   1.00
O1620  O     0.12432   0.81250   0.36010   0.00000  Uiso   1.00
C1621  C     0.17022   0.81250   0.42510   0.00000  Uiso   1.00
C1622  C     0.20475   0.81250   0.45427   0.00000  Uiso   1.00
C1623  C     0.15133   0.81250   0.40915   0.00000  Uiso   1.00
C1624  C     0.22365   0.81250   0.47025   0.00000  Uiso   1.00
C1625  C     0.30387   0.76780   0.44260   0.00000  Uiso   1.00
C1626  C     0.32113   0.76780   0.42800   0.00000  Uiso   1.00
O1627  O     0.26815   0.77008   0.47277   0.00000  Uiso   1.00
O1628  O     0.35682   0.77008   0.39782   0.00000  Uiso   1.00
C1629  C     0.32113   0.98220   0.31760   0.00000  Uiso   1.00
C1630  C     0.30387   0.98220   0.30300   0.00000  Uiso   1.00
O1631  O     0.35685   0.97992   0.34777   0.00000  Uiso   1.00
O1632  O     0.26818   0.97992   0.27282   0.00000  Uiso   1.00
C1633  C     0.44613   0.89280   0.30740   0.00000  Uiso   1.00
C1634  C     0.42887   0.89280   0.32200   0.00000  Uiso   1.00
O1635  O     0.48185   0.89508   0.27722   0.00000  Uiso   1.00
O1636  O     0.39317   0.89508   0.35217   0.00000  Uiso   1.00
C1637  C     0.42887   0.85720   0.43240   0.00000  Uiso   1.00
C1638  C     0.44613   0.85720   0.44700   0.00000  Uiso   1.00
O1639  O     0.39315   0.85492   0.40222   0.00000  Uiso   1.00
O1640  O     0.48182   0.85492   0.47717   0.00000  Uiso   1.00
C1641  C     0.44613   0.98220   0.30740   0.00000  Uiso   1.00
C1642  C     0.42887   0.98220   0.32200   0.00000  Uiso   1.00
O1643  O     0.48185   0.97992   0.27722   0.00000  Uiso   1.00
O1644  O     0.39317   0.97992   0.35217   0.00000  Uiso   1.00
C1645  C     0.42887   0.76780   0.43240   0.00000  Uiso   1.00
C1646  C     0.44613   0.76780   0.44700   0.00000  Uiso   1.00
O1647  O     0.39315   0.77008   0.40222   0.00000  Uiso   1.00
O1648  O     0.48182   0.77008   0.47717   0.00000  Uiso   1.00
C1649  C     0.30387   0.85720   0.44260   0.00000  Uiso   1.00
C1650  C     0.32113   0.85720   0.42800   0.00000  Uiso   1.00
O1651  O     0.26815   0.85492   0.47277   0.00000  Uiso   1.00
O1652  O     0.35682   0.85492   0.39782   0.00000  Uiso   1.00
C1653  C     0.32113   0.89280   0.31760   0.00000  Uiso   1.00
C1654  C     0.30387   0.89280   0.30300   0.00000  Uiso   1.00
O1655  O     0.35685   0.89508   0.34777   0.00000  Uiso   1.00
O1656  O     0.26818   0.89508   0.27282   0.00000  Uiso   1.00
Al1657 Al    0.25000   0.75000   0.25000   0.00000  Uiso   1.00
Al1658 Al    0.37500   0.75000   0.37500   0.00000  Uiso   1.00
Al1659 Al    0.25000   0.87500   0.25000   0.00000  Uiso   1.00
Al1660 Al    0.37500   0.87500   0.37500   0.00000  Uiso   1.00
O1661  O     0.49932   0.81250   0.26490   0.00000  Uiso   1.00
C1662  C     0.29523   0.81250   0.44990   0.00000  Uiso   1.00
C1663  C     0.32975   0.81250   0.42072   0.00000  Uiso   1.00
C1664  C     0.27633   0.81250   0.46585   0.00000  Uiso   1.00
C1665  C     0.34865   0.81250   0.40475   0.00000  Uiso   1.00
O1666  O     0.37568   0.93750   0.38990   0.00000  Uiso   1.00
C1667  C     0.32977   0.93750   0.32490   0.00000  Uiso   1.00
C1668  C     0.29525   0.93750   0.29572   0.00000  Uiso   1.00
C1669  C     0.34868   0.93750   0.34085   0.00000  Uiso   1.00
C1670  C     0.27635   0.93750   0.27975   0.00000  Uiso   1.00
O1671  O     0.25068   0.93750   0.48509   0.00000  Uiso   1.00
C1672  C     0.45477   0.93750   0.30010   0.00000  Uiso   1.00
C1673  C     0.42025   0.93750   0.32928   0.00000  Uiso   1.00
C1674  C     0.47367   0.93750   0.28415   0.00000  Uiso   1.00
C1675  C     0.40135   0.93750   0.34525   0.00000  Uiso   1.00
O1676  O     0.37432   0.81250   0.36010   0.00000  Uiso   1.00
C1677  C     0.42022   0.81250   0.42510   0.00000  Uiso   1.00
C1678  C     0.45475   0.81250   0.45427   0.00000  Uiso   1.00
C1679  C     0.40133   0.81250   0.40915   0.00000  Uiso   1.00
C1680  C     0.47365   0.81250   0.47025   0.00000  Uiso   1.00
C1681  C     0.55387   0.76780   0.44260   0.00000  Uiso   1.00
C1682  C     0.57113   0.76780   0.42800   0.00000  Uiso   1.00
O1683  O     0.51815   0.77008   0.47277   0.00000  Uiso   1.00
O1684  O     0.60683   0.77008   0.39782   0.00000  Uiso   1.00
C1685  C     0.57113   0.98220   0.31760   0.00000  Uiso   1.00
C1686  C     0.55387   0.98220   0.30300   0.00000  Uiso   1.00
O1687  O     0.60685   0.97992   0.34777   0.00000  Uiso   1.00
O1688  O     0.51818   0.97992   0.27282   0.00000  Uiso   1.00
C1689  C     0.69613   0.89280   0.30740   0.00000  Uiso   1.00
C1690  C     0.67887   0.89280   0.32200   0.00000  Uiso   1.00
O1691  O     0.73185   0.89508   0.27722   0.00000  Uiso   1.00
O1692  O     0.64317   0.89508   0.35217   0.00000  Uiso   1.00
C1693  C     0.67887   0.85720   0.43240   0.00000  Uiso   1.00
C1694  C     0.69613   0.85720   0.44700   0.00000  Uiso   1.00
O1695  O     0.64315   0.85492   0.40222   0.00000  Uiso   1.00
O1696  O     0.73182   0.85492   0.47717   0.00000  Uiso   1.00
C1697  C     0.69613   0.98220   0.30740   0.00000  Uiso   1.00
C1698  C     0.67887   0.98220   0.32200   0.00000  Uiso   1.00
O1699  O     0.73185   0.97992   0.27722   0.00000  Uiso   1.00
O1700  O     0.64317   0.97992   0.35217   0.00000  Uiso   1.00
C1701  C     0.67887   0.76780   0.43240   0.00000  Uiso   1.00
C1702  C     0.69613   0.76780   0.44700   0.00000  Uiso   1.00
O1703  O     0.64315   0.77008   0.40222   0.00000  Uiso   1.00
O1704  O     0.73182   0.77008   0.47717   0.00000  Uiso   1.00
C1705  C     0.55387   0.85720   0.44260   0.00000  Uiso   1.00
C1706  C     0.57113   0.85720   0.42800   0.00000  Uiso   1.00
O1707  O     0.51815   0.85492   0.47277   0.00000  Uiso   1.00
O1708  O     0.60683   0.85492   0.39782   0.00000  Uiso   1.00
C1709  C     0.57113   0.89280   0.31760   0.00000  Uiso   1.00
C1710  C     0.55387   0.89280   0.30300   0.00000  Uiso   1.00
O1711  O     0.60685   0.89508   0.34777   0.00000  Uiso   1.00
O1712  O     0.51818   0.89508   0.27282   0.00000  Uiso   1.00
Al1713 Al    0.50000   0.75000   0.25000   0.00000  Uiso   1.00
Al1714 Al    0.62500   0.75000   0.37500   0.00000  Uiso   1.00
Al1715 Al    0.50000   0.87500   0.25000   0.00000  Uiso   1.00
Al1716 Al    0.62500   0.87500   0.37500   0.00000  Uiso   1.00
O1717  O     0.74932   0.81250   0.26490   0.00000  Uiso   1.00
C1718  C     0.54523   0.81250   0.44990   0.00000  Uiso   1.00
C1719  C     0.57975   0.81250   0.42072   0.00000  Uiso   1.00
C1720  C     0.52633   0.81250   0.46585   0.00000  Uiso   1.00
C1721  C     0.59865   0.81250   0.40475   0.00000  Uiso   1.00
O1722  O     0.62568   0.93750   0.38990   0.00000  Uiso   1.00
C1723  C     0.57977   0.93750   0.32490   0.00000  Uiso   1.00
C1724  C     0.54525   0.93750   0.29572   0.00000  Uiso   1.00
C1725  C     0.59868   0.93750   0.34085   0.00000  Uiso   1.00
C1726  C     0.52635   0.93750   0.27975   0.00000  Uiso   1.00
O1727  O     0.50068   0.93750   0.48509   0.00000  Uiso   1.00
C1728  C     0.70477   0.93750   0.30010   0.00000  Uiso   1.00
C1729  C     0.67025   0.93750   0.32928   0.00000  Uiso   1.00
C1730  C     0.72367   0.93750   0.28415   0.00000  Uiso   1.00
C1731  C     0.65135   0.93750   0.34525   0.00000  Uiso   1.00
O1732  O     0.62432   0.81250   0.36010   0.00000  Uiso   1.00
C1733  C     0.67022   0.81250   0.42510   0.00000  Uiso   1.00
C1734  C     0.70475   0.81250   0.45427   0.00000  Uiso   1.00
C1735  C     0.65133   0.81250   0.40915   0.00000  Uiso   1.00
C1736  C     0.72365   0.81250   0.47025   0.00000  Uiso   1.00
C1737  C     0.80387   0.76780   0.44260   0.00000  Uiso   1.00
C1738  C     0.82113   0.76780   0.42800   0.00000  Uiso   1.00
O1739  O     0.76815   0.77008   0.47277   0.00000  Uiso   1.00
O1740  O     0.85683   0.77008   0.39782   0.00000  Uiso   1.00
C1741  C     0.82113   0.98220   0.31760   0.00000  Uiso   1.00
C1742  C     0.80387   0.98220   0.30300   0.00000  Uiso   1.00
O1743  O     0.85685   0.97992   0.34777   0.00000  Uiso   1.00
O1744  O     0.76818   0.97992   0.27282   0.00000  Uiso   1.00
C1745  C     0.94613   0.89280   0.30740   0.00000  Uiso   1.00
C1746  C     0.92887   0.89280   0.32200   0.00000  Uiso   1.00
O1747  O     0.98185   0.89508   0.27722   0.00000  Uiso   1.00
O1748  O     0.89317   0.89508   0.35217   0.00000  Uiso   1.00
C1749  C     0.92887   0.85720   0.43240   0.00000  Uiso   1.00
C1750  C     0.94613   0.85720   0.44700   0.00000  Uiso   1.00
O1751  O     0.89315   0.85492   0.40222   0.00000  Uiso   1.00
O1752  O     0.98182   0.85492   0.47717   0.00000  Uiso   1.00
C1753  C     0.94613   0.98220   0.30740   0.00000  Uiso   1.00
C1754  C     0.92887   0.98220   0.32200   0.00000  Uiso   1.00
O1755  O     0.98185   0.97992   0.27722   0.00000  Uiso   1.00
O1756  O     0.89317   0.97992   0.35217   0.00000  Uiso   1.00
C1757  C     0.92887   0.76780   0.43240   0.00000  Uiso   1.00
C1758  C     0.94613   0.76780   0.44700   0.00000  Uiso   1.00
O1759  O     0.89315   0.77008   0.40222   0.00000  Uiso   1.00
O1760  O     0.98182   0.77008   0.47717   0.00000  Uiso   1.00
C1761  C     0.80387   0.85720   0.44260   0.00000  Uiso   1.00
C1762  C     0.82113   0.85720   0.42800   0.00000  Uiso   1.00
O1763  O     0.76815   0.85492   0.47277   0.00000  Uiso   1.00
O1764  O     0.85683   0.85492   0.39782   0.00000  Uiso   1.00
C1765  C     0.82113   0.89280   0.31760   0.00000  Uiso   1.00
C1766  C     0.80387   0.89280   0.30300   0.00000  Uiso   1.00
O1767  O     0.85685   0.89508   0.34777   0.00000  Uiso   1.00
O1768  O     0.76818   0.89508   0.27282   0.00000  Uiso   1.00
Al1769 Al    0.75000   0.75000   0.25000   0.00000  Uiso   1.00
Al1770 Al    0.87500   0.75000   0.37500   0.00000  Uiso   1.00
Al1771 Al    0.75000   0.87500   0.25000   0.00000  Uiso   1.00
Al1772 Al    0.87500   0.87500   0.37500   0.00000  Uiso   1.00
O1773  O     0.99932   0.81250   0.26490   0.00000  Uiso   1.00
C1774  C     0.79523   0.81250   0.44990   0.00000  Uiso   1.00
C1775  C     0.82975   0.81250   0.42072   0.00000  Uiso   1.00
C1776  C     0.77633   0.81250   0.46585   0.00000  Uiso   1.00
C1777  C     0.84865   0.81250   0.40475   0.00000  Uiso   1.00
O1778  O     0.87568   0.93750   0.38990   0.00000  Uiso   1.00
C1779  C     0.82977   0.93750   0.32490   0.00000  Uiso   1.00
C1780  C     0.79525   0.93750   0.29572   0.00000  Uiso   1.00
C1781  C     0.84867   0.93750   0.34085   0.00000  Uiso   1.00
C1782  C     0.77635   0.93750   0.27975   0.00000  Uiso   1.00
O1783  O     0.75068   0.93750   0.48509   0.00000  Uiso   1.00
C1784  C     0.95477   0.93750   0.30010   0.00000  Uiso   1.00
C1785  C     0.92025   0.93750   0.32928   0.00000  Uiso   1.00
C1786  C     0.97367   0.93750   0.28415   0.00000  Uiso   1.00
C1787  C     0.90135   0.93750   0.34525   0.00000  Uiso   1.00
O1788  O     0.87432   0.81250   0.36010   0.00000  Uiso   1.00
C1789  C     0.92022   0.81250   0.42510   0.00000  Uiso   1.00
C1790  C     0.95475   0.81250   0.45427   0.00000  Uiso   1.00
C1791  C     0.90133   0.81250   0.40915   0.00000  Uiso   1.00
C1792  C     0.97365   0.81250   0.47025   0.00000  Uiso   1.00
C1793  C     0.05387   0.01780   0.69260   0.00000  Uiso   1.00
C1794  C     0.07113   0.01780   0.67800   0.00000  Uiso   1.00
O1795  O     0.01815   0.02008   0.72277   0.00000  Uiso   1.00
O1796  O     0.10683   0.02008   0.64782   0.00000  Uiso   1.00
C1797  C     0.07113   0.23220   0.56760   0.00000  Uiso   1.00
C1798  C     0.05387   0.23220   0.55300   0.00000  Uiso   1.00
O1799  O     0.10685   0.22992   0.59777   0.00000  Uiso   1.00
O1800  O     0.01818   0.22992   0.52282   0.00000  Uiso   1.00
C1801  C     0.19613   0.14280   0.55740   0.00000  Uiso   1.00
C1802  C     0.17887   0.14280   0.57200   0.00000  Uiso   1.00
O1803  O     0.23185   0.14508   0.52722   0.00000  Uiso   1.00
O1804  O     0.14317   0.14508   0.60217   0.00000  Uiso   1.00
C1805  C     0.17887   0.10720   0.68240   0.00000  Uiso   1.00
C1806  C     0.19613   0.10720   0.69700   0.00000  Uiso   1.00
O1807  O     0.14315   0.10492   0.65222   0.00000  Uiso   1.00
O1808  O     0.23182   0.10492   0.72717   0.00000  Uiso   1.00
C1809  C     0.19613   0.23220   0.55740   0.00000  Uiso   1.00
C1810  C     0.17887   0.23220   0.57200   0.00000  Uiso   1.00
O1811  O     0.23185   0.22992   0.52722   0.00000  Uiso   1.00
O1812  O     0.14317   0.22992   0.60217   0.00000  Uiso   1.00
C1813  C     0.17887   0.01780   0.68240   0.00000  Uiso   1.00
C1814  C     0.19613   0.01780   0.69700   0.00000  Uiso   1.00
O1815  O     0.14315   0.02008   0.65222   0.00000  Uiso   1.00
O1816  O     0.23182   0.02008   0.72717   0.00000  Uiso   1.00
C1817  C     0.05387   0.10720   0.69260   0.00000  Uiso   1.00
C1818  C     0.07113   0.10720   0.67800   0.00000  Uiso   1.00
O1819  O     0.01815   0.10492   0.72277   0.00000  Uiso   1.00
O1820  O     0.10683   0.10492   0.64782   0.00000  Uiso   1.00
C1821  C     0.07113   0.14280   0.56760   0.00000  Uiso   1.00
C1822  C     0.05387   0.14280   0.55300   0.00000  Uiso   1.00
O1823  O     0.10685   0.14508   0.59777   0.00000  Uiso   1.00
O1824  O     0.01818   0.14508   0.52282   0.00000  Uiso   1.00
Al1825 Al    0.00000   0.00000   0.50000   0.00000  Uiso   1.00
Al1826 Al    0.12500   0.00000   0.62500   0.00000  Uiso   1.00
Al1827 Al    0.00000   0.12500   0.50000   0.00000  Uiso   1.00
Al1828 Al    0.12500   0.12500   0.62500   0.00000  Uiso   1.00
O1829  O     0.24932   0.06250   0.51490   0.00000  Uiso   1.00
C1830  C     0.04523   0.06250   0.69990   0.00000  Uiso   1.00
C1831  C     0.07975   0.06250   0.67072   0.00000  Uiso   1.00
C1832  C     0.02633   0.06250   0.71585   0.00000  Uiso   1.00
C1833  C     0.09865   0.06250   0.65475   0.00000  Uiso   1.00
O1834  O     0.12568   0.18750   0.63990   0.00000  Uiso   1.00
C1835  C     0.07977   0.18750   0.57490   0.00000  Uiso   1.00
C1836  C     0.04525   0.18750   0.54572   0.00000  Uiso   1.00
C1837  C     0.09868   0.18750   0.59085   0.00000  Uiso   1.00
C1838  C     0.02635   0.18750   0.52975   0.00000  Uiso   1.00
O1839  O     0.00068   0.18750   0.73509   0.00000  Uiso   1.00
C1840  C     0.20477   0.18750   0.55010   0.00000  Uiso   1.00
C1841  C     0.17025   0.18750   0.57928   0.00000  Uiso   1.00
C1842  C     0.22367   0.18750   0.53415   0.00000  Uiso   1.00
C1843  C     0.15135   0.18750   0.59525   0.00000  Uiso   1.00
O1844  O     0.12432   0.06250   0.61010   0.00000  Uiso   1.00
C1845  C     0.17022   0.06250   0.67510   0.00000  Uiso   1.00
C1846  C     0.20475   0.06250   0.70427   0.00000  Uiso   1.00
C1847  C     0.15133   0.06250   0.65915   0.00000  Uiso   1.00
C1848  C     0.22365   0.06250   0.72025   0.00000  Uiso   1.00
C1849  C     0.30387   0.01780   0.69260   0.00000  Uiso   1.00
C1850  C     0.32113   0.01780   0.67800   0.00000  Uiso   1.00
O1851  O     0.26815   0.02008   0.72277   0.00000  Uiso   1.00
O1852  O     0.35682   0.02008   0.64782   0.00000  Uiso   1.00
C1853  C     0.32113   0.23220   0.56760   0.00000  Uiso   1.00
C1854  C     0.30387   0.23220   0.55300   0.00000  Uiso   1.00
O1855  O     0.35685   0.22992   0.59777   0.00000  Uiso   1.00
O1856  O     0.26818   0.22992   0.52282   0.00000  Uiso   1.00
C1857  C     0.44613   0.14280   0.55740   0.00000  Uiso   1.00
C1858  C     0.42887   0.14280   0.57200   0.00000  Uiso   1.00
O1859  O     0.48185   0.14508   0.52722   0.00000  Uiso   1.00
O1860  O     0.39317   0.14508   0.60217   0.00000  Uiso   1.00
C1861  C     0.42887   0.10720   0.68240   0.00000  Uiso   1.00
C1862  C     0.44613   0.10720   0.69700   0.00000  Uiso   1.00
O1863  O     0.39315   0.10492   0.65222   0.00000  Uiso   1.00
O1864  O     0.48182   0.10492   0.72717   0.00000  Uiso   1.00
C1865  C     0.44613   0.23220   0.55740   0.00000  Uiso   1.00
C1866  C     0.42887   0.23220   0.57200   0.00000  Uiso   1.00
O1867  O     0.48185   0.22992   0.52722   0.00000  Uiso   1.00
O1868  O     0.39317   0.22992   0.60217   0.00000  Uiso   1.00
C1869  C     0.42887   0.01780   0.68240   0.00000  Uiso   1.00
C1870  C     0.44613   0.01780   0.69700   0.00000  Uiso   1.00
O1871  O     0.39315   0.02008   0.65222   0.00000  Uiso   1.00
O1872  O     0.48182   0.02008   0.72717   0.00000  Uiso   1.00
C1873  C     0.30387   0.10720   0.69260   0.00000  Uiso   1.00
C1874  C     0.32113   0.10720   0.67800   0.00000  Uiso   1.00
O1875  O     0.26815   0.10492   0.72277   0.00000  Uiso   1.00
O1876  O     0.35682   0.10492   0.64782   0.00000  Uiso   1.00
C1877  C     0.32113   0.14280   0.56760   0.00000  Uiso   1.00
C1878  C     0.30387   0.14280   0.55300   0.00000  Uiso   1.00
O1879  O     0.35685   0.14508   0.59777   0.00000  Uiso   1.00
O1880  O     0.26818   0.14508   0.52282   0.00000  Uiso   1.00
Al1881 Al    0.25000   0.00000   0.50000   0.00000  Uiso   1.00
Al1882 Al    0.37500   0.00000   0.62500   0.00000  Uiso   1.00
Al1883 Al    0.25000   0.12500   0.50000   0.00000  Uiso   1.00
Al1884 Al    0.37500   0.12500   0.62500   0.00000  Uiso   1.00
O1885  O     0.49932   0.06250   0.51490   0.00000  Uiso   1.00
C1886  C     0.29523   0.06250   0.69990   0.00000  Uiso   1.00
C1887  C     0.32975   0.06250   0.67072   0.00000  Uiso   1.00
C1888  C     0.27633   0.06250   0.71585   0.00000  Uiso   1.00
C1889  C     0.34865   0.06250   0.65475   0.00000  Uiso   1.00
O1890  O     0.37568   0.18750   0.63990   0.00000  Uiso   1.00
C1891  C     0.32977   0.18750   0.57490   0.00000  Uiso   1.00
C1892  C     0.29525   0.18750   0.54572   0.00000  Uiso   1.00
C1893  C     0.34868   0.18750   0.59085   0.00000  Uiso   1.00
C1894  C     0.27635   0.18750   0.52975   0.00000  Uiso   1.00
O1895  O     0.25068   0.18750   0.73509   0.00000  Uiso   1.00
C1896  C     0.45477   0.18750   0.55010   0.00000  Uiso   1.00
C1897  C     0.42025   0.18750   0.57928   0.00000  Uiso   1.00
C1898  C     0.47367   0.18750   0.53415   0.00000  Uiso   1.00
C1899  C     0.40135   0.18750   0.59525   0.00000  Uiso   1.00
O1900  O     0.37432   0.06250   0.61010   0.00000  Uiso   1.00
C1901  C     0.42022   0.06250   0.67510   0.00000  Uiso   1.00
C1902  C     0.45475   0.06250   0.70427   0.00000  Uiso   1.00
C1903  C     0.40133   0.06250   0.65915   0.00000  Uiso   1.00
C1904  C     0.47365   0.06250   0.72025   0.00000  Uiso   1.00
C1905  C     0.55387   0.01780   0.69260   0.00000  Uiso   1.00
C1906  C     0.57113   0.01780   0.67800   0.00000  Uiso   1.00
O1907  O     0.51815   0.02008   0.72277   0.00000  Uiso   1.00
O1908  O     0.60683   0.02008   0.64782   0.00000  Uiso   1.00
C1909  C     0.57113   0.23220   0.56760   0.00000  Uiso   1.00
C1910  C     0.55387   0.23220   0.55300   0.00000  Uiso   1.00
O1911  O     0.60685   0.22992   0.59777   0.00000  Uiso   1.00
O1912  O     0.51818   0.22992   0.52282   0.00000  Uiso   1.00
C1913  C     0.69613   0.14280   0.55740   0.00000  Uiso   1.00
C1914  C     0.67887   0.14280   0.57200   0.00000  Uiso   1.00
O1915  O     0.73185   0.14508   0.52722   0.00000  Uiso   1.00
O1916  O     0.64317   0.14508   0.60217   0.00000  Uiso   1.00
C1917  C     0.67887   0.10720   0.68240   0.00000  Uiso   1.00
C1918  C     0.69613   0.10720   0.69700   0.00000  Uiso   1.00
O1919  O     0.64315   0.10492   0.65222   0.00000  Uiso   1.00
O1920  O     0.73182   0.10492   0.72717   0.00000  Uiso   1.00
C1921  C     0.69613   0.23220   0.55740   0.00000  Uiso   1.00
C1922  C     0.67887   0.23220   0.57200   0.00000  Uiso   1.00
O1923  O     0.73185   0.22992   0.52722   0.00000  Uiso   1.00
O1924  O     0.64317   0.22992   0.60217   0.00000  Uiso   1.00
C1925  C     0.67887   0.01780   0.68240   0.00000  Uiso   1.00
C1926  C     0.69613   0.01780   0.69700   0.00000  Uiso   1.00
O1927  O     0.64315   0.02008   0.65222   0.00000  Uiso   1.00
O1928  O     0.73182   0.02008   0.72717   0.00000  Uiso   1.00
C1929  C     0.55387   0.10720   0.69260   0.00000  Uiso   1.00
C1930  C     0.57113   0.10720   0.67800   0.00000  Uiso   1.00
O1931  O     0.51815   0.10492   0.72277   0.00000  Uiso   1.00
O1932  O     0.60683   0.10492   0.64782   0.00000  Uiso   1.00
C1933  C     0.57113   0.14280   0.56760   0.00000  Uiso   1.00
C1934  C     0.55387   0.14280   0.55300   0.00000  Uiso   1.00
O1935  O     0.60685   0.14508   0.59777   0.00000  Uiso   1.00
O1936  O     0.51818   0.14508   0.52282   0.00000  Uiso   1.00
Al1937 Al    0.50000   0.00000   0.50000   0.00000  Uiso   1.00
Al1938 Al    0.62500   0.00000   0.62500   0.00000  Uiso   1.00
Al1939 Al    0.50000   0.12500   0.50000   0.00000  Uiso   1.00
Al1940 Al    0.62500   0.12500   0.62500   0.00000  Uiso   1.00
O1941  O     0.74932   0.06250   0.51490   0.00000  Uiso   1.00
C1942  C     0.54523   0.06250   0.69990   0.00000  Uiso   1.00
C1943  C     0.57975   0.06250   0.67072   0.00000  Uiso   1.00
C1944  C     0.52633   0.06250   0.71585   0.00000  Uiso   1.00
C1945  C     0.59865   0.06250   0.65475   0.00000  Uiso   1.00
O1946  O     0.62568   0.18750   0.63990   0.00000  Uiso   1.00
C1947  C     0.57977   0.18750   0.57490   0.00000  Uiso   1.00
C1948  C     0.54525   0.18750   0.54572   0.00000  Uiso   1.00
C1949  C     0.59868   0.18750   0.59085   0.00000  Uiso   1.00
C1950  C     0.52635   0.18750   0.52975   0.00000  Uiso   1.00
O1951  O     0.50068   0.18750   0.73509   0.00000  Uiso   1.00
C1952  C     0.70477   0.18750   0.55010   0.00000  Uiso   1.00
C1953  C     0.67025   0.18750   0.57928   0.00000  Uiso   1.00
C1954  C     0.72367   0.18750   0.53415   0.00000  Uiso   1.00
C1955  C     0.65135   0.18750   0.59525   0.00000  Uiso   1.00
O1956  O     0.62432   0.06250   0.61010   0.00000  Uiso   1.00
C1957  C     0.67022   0.06250   0.67510   0.00000  Uiso   1.00
C1958  C     0.70475   0.06250   0.70427   0.00000  Uiso   1.00
C1959  C     0.65133   0.06250   0.65915   0.00000  Uiso   1.00
C1960  C     0.72365   0.06250   0.72025   0.00000  Uiso   1.00
C1961  C     0.80387   0.01780   0.69260   0.00000  Uiso   1.00
C1962  C     0.82113   0.01780   0.67800   0.00000  Uiso   1.00
O1963  O     0.76815   0.02008   0.72277   0.00000  Uiso   1.00
O1964  O     0.85683   0.02008   0.64782   0.00000  Uiso   1.00
C1965  C     0.82113   0.23220   0.56760   0.00000  Uiso   1.00
C1966  C     0.80387   0.23220   0.55300   0.00000  Uiso   1.00
O1967  O     0.85685   0.22992   0.59777   0.00000  Uiso   1.00
O1968  O     0.76818   0.22992   0.52282   0.00000  Uiso   1.00
C1969  C     0.94613   0.14280   0.55740   0.00000  Uiso   1.00
C1970  C     0.92887   0.14280   0.57200   0.00000  Uiso   1.00
O1971  O     0.98185   0.14508   0.52722   0.00000  Uiso   1.00
O1972  O     0.89317   0.14508   0.60217   0.00000  Uiso   1.00
C1973  C     0.92887   0.10720   0.68240   0.00000  Uiso   1.00
C1974  C     0.94613   0.10720   0.69700   0.00000  Uiso   1.00
O1975  O     0.89315   0.10492   0.65222   0.00000  Uiso   1.00
O1976  O     0.98182   0.10492   0.72717   0.00000  Uiso   1.00
C1977  C     0.94613   0.23220   0.55740   0.00000  Uiso   1.00
C1978  C     0.92887   0.23220   0.57200   0.00000  Uiso   1.00
O1979  O     0.98185   0.22992   0.52722   0.00000  Uiso   1.00
O1980  O     0.89317   0.22992   0.60217   0.00000  Uiso   1.00
C1981  C     0.92887   0.01780   0.68240   0.00000  Uiso   1.00
C1982  C     0.94613   0.01780   0.69700   0.00000  Uiso   1.00
O1983  O     0.89315   0.02008   0.65222   0.00000  Uiso   1.00
O1984  O     0.98182   0.02008   0.72717   0.00000  Uiso   1.00
C1985  C     0.80387   0.10720   0.69260   0.00000  Uiso   1.00
C1986  C     0.82113   0.10720   0.67800   0.00000  Uiso   1.00
O1987  O     0.76815   0.10492   0.72277   0.00000  Uiso   1.00
O1988  O     0.85683   0.10492   0.64782   0.00000  Uiso   1.00
C1989  C     0.82113   0.14280   0.56760   0.00000  Uiso   1.00
C1990  C     0.80387   0.14280   0.55300   0.00000  Uiso   1.00
O1991  O     0.85685   0.14508   0.59777   0.00000  Uiso   1.00
O1992  O     0.76818   0.14508   0.52282   0.00000  Uiso   1.00
Al1993 Al    0.75000   0.00000   0.50000   0.00000  Uiso   1.00
Al1994 Al    0.87500   0.00000   0.62500   0.00000  Uiso   1.00
Al1995 Al    0.75000   0.12500   0.50000   0.00000  Uiso   1.00
Al1996 Al    0.87500   0.12500   0.62500   0.00000  Uiso   1.00
O1997  O     0.99932   0.06250   0.51490   0.00000  Uiso   1.00
C1998  C     0.79523   0.06250   0.69990   0.00000  Uiso   1.00
C1999  C     0.82975   0.06250   0.67072   0.00000  Uiso   1.00
C2000  C     0.77633   0.06250   0.71585   0.00000  Uiso   1.00
C2001  C     0.84865   0.06250   0.65475   0.00000  Uiso   1.00
O2002  O     0.87568   0.18750   0.63990   0.00000  Uiso   1.00
C2003  C     0.82977   0.18750   0.57490   0.00000  Uiso   1.00
C2004  C     0.79525   0.18750   0.54572   0.00000  Uiso   1.00
C2005  C     0.84867   0.18750   0.59085   0.00000  Uiso   1.00
C2006  C     0.77635   0.18750   0.52975   0.00000  Uiso   1.00
O2007  O     0.75068   0.18750   0.73509   0.00000  Uiso   1.00
C2008  C     0.95477   0.18750   0.55010   0.00000  Uiso   1.00
C2009  C     0.92025   0.18750   0.57928   0.00000  Uiso   1.00
C2010  C     0.97367   0.18750   0.53415   0.00000  Uiso   1.00
C2011  C     0.90135   0.18750   0.59525   0.00000  Uiso   1.00
O2012  O     0.87432   0.06250   0.61010   0.00000  Uiso   1.00
C2013  C     0.92022   0.06250   0.67510   0.00000  Uiso   1.00
C2014  C     0.95475   0.06250   0.70427   0.00000  Uiso   1.00
C2015  C     0.90133   0.06250   0.65915   0.00000  Uiso   1.00
C2016  C     0.97365   0.06250   0.72025   0.00000  Uiso   1.00
C2017  C     0.05387   0.26780   0.69260   0.00000  Uiso   1.00
C2018  C     0.07113   0.26780   0.67800   0.00000  Uiso   1.00
O2019  O     0.01815   0.27008   0.72277   0.00000  Uiso   1.00
O2020  O     0.10683   0.27008   0.64782   0.00000  Uiso   1.00
C2021  C     0.07113   0.48220   0.56760   0.00000  Uiso   1.00
C2022  C     0.05387   0.48220   0.55300   0.00000  Uiso   1.00
O2023  O     0.10685   0.47992   0.59777   0.00000  Uiso   1.00
O2024  O     0.01818   0.47992   0.52282   0.00000  Uiso   1.00
C2025  C     0.19613   0.39280   0.55740   0.00000  Uiso   1.00
C2026  C     0.17887   0.39280   0.57200   0.00000  Uiso   1.00
O2027  O     0.23185   0.39508   0.52722   0.00000  Uiso   1.00
O2028  O     0.14317   0.39508   0.60217   0.00000  Uiso   1.00
C2029  C     0.17887   0.35720   0.68240   0.00000  Uiso   1.00
C2030  C     0.19613   0.35720   0.69700   0.00000  Uiso   1.00
O2031  O     0.14315   0.35492   0.65222   0.00000  Uiso   1.00
O2032  O     0.23182   0.35492   0.72717   0.00000  Uiso   1.00
C2033  C     0.19613   0.48220   0.55740   0.00000  Uiso   1.00
C2034  C     0.17887   0.48220   0.57200   0.00000  Uiso   1.00
O2035  O     0.23185   0.47992   0.52722   0.00000  Uiso   1.00
O2036  O     0.14317   0.47992   0.60217   0.00000  Uiso   1.00
C2037  C     0.17887   0.26780   0.68240   0.00000  Uiso   1.00
C2038  C     0.19613   0.26780   0.69700   0.00000  Uiso   1.00
O2039  O     0.14315   0.27008   0.65222   0.00000  Uiso   1.00
O2040  O     0.23182   0.27008   0.72717   0.00000  Uiso   1.00
C2041  C     0.05387   0.35720   0.69260   0.00000  Uiso   1.00
C2042  C     0.07113   0.35720   0.67800   0.00000  Uiso   1.00
O2043  O     0.01815   0.35492   0.72277   0.00000  Uiso   1.00
O2044  O     0.10683   0.35492   0.64782   0.00000  Uiso   1.00
C2045  C     0.07113   0.39280   0.56760   0.00000  Uiso   1.00
C2046  C     0.05387   0.39280   0.55300   0.00000  Uiso   1.00
O2047  O     0.10685   0.39508   0.59777   0.00000  Uiso   1.00
O2048  O     0.01818   0.39508   0.52282   0.00000  Uiso   1.00
Al2049 Al    0.00000   0.25000   0.50000   0.00000  Uiso   1.00
Al2050 Al    0.12500   0.25000   0.62500   0.00000  Uiso   1.00
Al2051 Al    0.00000   0.37500   0.50000   0.00000  Uiso   1.00
Al2052 Al    0.12500   0.37500   0.62500   0.00000  Uiso   1.00
O2053  O     0.24932   0.31250   0.51490   0.00000  Uiso   1.00
C2054  C     0.04523   0.31250   0.69990   0.00000  Uiso   1.00
C2055  C     0.07975   0.31250   0.67072   0.00000  Uiso   1.00
C2056  C     0.02633   0.31250   0.71585   0.00000  Uiso   1.00
C2057  C     0.09865   0.31250   0.65475   0.00000  Uiso   1.00
O2058  O     0.12568   0.43750   0.63990   0.00000  Uiso   1.00
C2059  C     0.07977   0.43750   0.57490   0.00000  Uiso   1.00
C2060  C     0.04525   0.43750   0.54572   0.00000  Uiso   1.00
C2061  C     0.09868   0.43750   0.59085   0.00000  Uiso   1.00
C2062  C     0.02635   0.43750   0.52975   0.00000  Uiso   1.00
O2063  O     0.00068   0.43750   0.73509   0.00000  Uiso   1.00
C2064  C     0.20477   0.43750   0.55010   0.00000  Uiso   1.00
C2065  C     0.17025   0.43750   0.57928   0.00000  Uiso   1.00
C2066  C     0.22367   0.43750   0.53415   0.00000  Uiso   1.00
C2067  C     0.15135   0.43750   0.59525   0.00000  Uiso   1.00
O2068  O     0.12432   0.31250   0.61010   0.00000  Uiso   1.00
C2069  C     0.17022   0.31250   0.67510   0.00000  Uiso   1.00
C2070  C     0.20475   0.31250   0.70427   0.00000  Uiso   1.00
C2071  C     0.15133   0.31250   0.65915   0.00000  Uiso   1.00
C2072  C     0.22365   0.31250   0.72025   0.00000  Uiso   1.00
C2073  C     0.30387   0.26780   0.69260   0.00000  Uiso   1.00
C2074  C     0.32113   0.26780   0.67800   0.00000  Uiso   1.00
O2075  O     0.26815   0.27008   0.72277   0.00000  Uiso   1.00
O2076  O     0.35682   0.27008   0.64782   0.00000  Uiso   1.00
C2077  C     0.32113   0.48220   0.56760   0.00000  Uiso   1.00
C2078  C     0.30387   0.48220   0.55300   0.00000  Uiso   1.00
O2079  O     0.35685   0.47992   0.59777   0.00000  Uiso   1.00
O2080  O     0.26818   0.47992   0.52282   0.00000  Uiso   1.00
C2081  C     0.44613   0.39280   0.55740   0.00000  Uiso   1.00
C2082  C     0.42887   0.39280   0.57200   0.00000  Uiso   1.00
O2083  O     0.48185   0.39508   0.52722   0.00000  Uiso   1.00
O2084  O     0.39317   0.39508   0.60217   0.00000  Uiso   1.00
C2085  C     0.42887   0.35720   0.68240   0.00000  Uiso   1.00
C2086  C     0.44613   0.35720   0.69700   0.00000  Uiso   1.00
O2087  O     0.39315   0.35492   0.65222   0.00000  Uiso   1.00
O2088  O     0.48182   0.35492   0.72717   0.00000  Uiso   1.00
C2089  C     0.44613   0.48220   0.55740   0.00000  Uiso   1.00
C2090  C     0.42887   0.48220   0.57200   0.00000  Uiso   1.00
O2091  O     0.48185   0.47992   0.52722   0.00000  Uiso   1.00
O2092  O     0.39317   0.47992   0.60217   0.00000  Uiso   1.00
C2093  C     0.42887   0.26780   0.68240   0.00000  Uiso   1.00
C2094  C     0.44613   0.26780   0.69700   0.00000  Uiso   1.00
O2095  O     0.39315   0.27008   0.65222   0.00000  Uiso   1.00
O2096  O     0.48182   0.27008   0.72717   0.00000  Uiso   1.00
C2097  C     0.30387   0.35720   0.69260   0.00000  Uiso   1.00
C2098  C     0.32113   0.35720   0.67800   0.00000  Uiso   1.00
O2099  O     0.26815   0.35492   0.72277   0.00000  Uiso   1.00
O2100  O     0.35682   0.35492   0.64782   0.00000  Uiso   1.00
C2101  C     0.32113   0.39280   0.56760   0.00000  Uiso   1.00
C2102  C     0.30387   0.39280   0.55300   0.00000  Uiso   1.00
O2103  O     0.35685   0.39508   0.59777   0.00000  Uiso   1.00
O2104  O     0.26818   0.39508   0.52282   0.00000  Uiso   1.00
Al2105 Al    0.25000   0.25000   0.50000   0.00000  Uiso   1.00
Al2106 Al    0.37500   0.25000   0.62500   0.00000  Uiso   1.00
Al2107 Al    0.25000   0.37500   0.50000   0.00000  Uiso   1.00
Al2108 Al    0.37500   0.37500   0.62500   0.00000  Uiso   1.00
O2109  O     0.49932   0.31250   0.51490   0.00000  Uiso   1.00
C2110  C     0.29523   0.31250   0.69990   0.00000  Uiso   1.00
C2111  C     0.32975   0.31250   0.67072   0.00000  Uiso   1.00
C2112  C     0.27633   0.31250   0.71585   0.00000  Uiso   1.00
C2113  C     0.34865   0.31250   0.65475   0.00000  Uiso   1.00
O2114  O     0.37568   0.43750   0.63990   0.00000  Uiso   1.00
C2115  C     0.32977   0.43750   0.57490   0.00000  Uiso   1.00
C2116  C     0.29525   0.43750   0.54572   0.00000  Uiso   1.00
C2117  C     0.34868   0.43750   0.59085   0.00000  Uiso   1.00
C2118  C     0.27635   0.43750   0.52975   0.00000  Uiso   1.00
O2119  O     0.25068   0.43750   0.73509   0.00000  Uiso   1.00
C2120  C     0.45477   0.43750   0.55010   0.00000  Uiso   1.00
C2121  C     0.42025   0.43750   0.57928   0.00000  Uiso   1.00
C2122  C     0.47367   0.43750   0.53415   0.00000  Uiso   1.00
C2123  C     0.40135   0.43750   0.59525   0.00000  Uiso   1.00
O2124  O     0.37432   0.31250   0.61010   0.00000  Uiso   1.00
C2125  C     0.42022   0.31250   0.67510   0.00000  Uiso   1.00
C2126  C     0.45475   0.31250   0.70427   0.00000  Uiso   1.00
C2127  C     0.40133   0.31250   0.65915   0.00000  Uiso   1.00
C2128  C     0.47365   0.31250   0.72025   0.00000  Uiso   1.00
C2129  C     0.55387   0.26780   0.69260   0.00000  Uiso   1.00
C2130  C     0.57113   0.26780   0.67800   0.00000  Uiso   1.00
O2131  O     0.51815   0.27008   0.72277   0.00000  Uiso   1.00
O2132  O     0.60683   0.27008   0.64782   0.00000  Uiso   1.00
C2133  C     0.57113   0.48220   0.56760   0.00000  Uiso   1.00
C2134  C     0.55387   0.48220   0.55300   0.00000  Uiso   1.00
O2135  O     0.60685   0.47992   0.59777   0.00000  Uiso   1.00
O2136  O     0.51818   0.47992   0.52282   0.00000  Uiso   1.00
C2137  C     0.69613   0.39280   0.55740   0.00000  Uiso   1.00
C2138  C     0.67887   0.39280   0.57200   0.00000  Uiso   1.00
O2139  O     0.73185   0.39508   0.52722   0.00000  Uiso   1.00
O2140  O     0.64317   0.39508   0.60217   0.00000  Uiso   1.00
C2141  C     0.67887   0.35720   0.68240   0.00000  Uiso   1.00
C2142  C     0.69613   0.35720   0.69700   0.00000  Uiso   1.00
O2143  O     0.64315   0.35492   0.65222   0.00000  Uiso   1.00
O2144  O     0.73182   0.35492   0.72717   0.00000  Uiso   1.00
C2145  C     0.69613   0.48220   0.55740   0.00000  Uiso   1.00
C2146  C     0.67887   0.48220   0.57200   0.00000  Uiso   1.00
O2147  O     0.73185   0.47992   0.52722   0.00000  Uiso   1.00
O2148  O     0.64317   0.47992   0.60217   0.00000  Uiso   1.00
C2149  C     0.67887   0.26780   0.68240   0.00000  Uiso   1.00
C2150  C     0.69613   0.26780   0.69700   0.00000  Uiso   1.00
O2151  O     0.64315   0.27008   0.65222   0.00000  Uiso   1.00
O2152  O     0.73182   0.27008   0.72717   0.00000  Uiso   1.00
C2153  C     0.55387   0.35720   0.69260   0.00000  Uiso   1.00
C2154  C     0.57113   0.35720   0.67800   0.00000  Uiso   1.00
O2155  O     0.51815   0.35492   0.72277   0.00000  Uiso   1.00
O2156  O     0.60683   0.35492   0.64782   0.00000  Uiso   1.00
C2157  C     0.57113   0.39280   0.56760   0.00000  Uiso   1.00
C2158  C     0.55387   0.39280   0.55300   0.00000  Uiso   1.00
O2159  O     0.60685   0.39508   0.59777   0.00000  Uiso   1.00
O2160  O     0.51818   0.39508   0.52282   0.00000  Uiso   1.00
Al2161 Al    0.50000   0.25000   0.50000   0.00000  Uiso   1.00
Al2162 Al    0.62500   0.25000   0.62500   0.00000  Uiso   1.00
Al2163 Al    0.50000   0.37500   0.50000   0.00000  Uiso   1.00
Al2164 Al    0.62500   0.37500   0.62500   0.00000  Uiso   1.00
O2165  O     0.74932   0.31250   0.51490   0.00000  Uiso   1.00
C2166  C     0.54523   0.31250   0.69990   0.00000  Uiso   1.00
C2167  C     0.57975   0.31250   0.67072   0.00000  Uiso   1.00
C2168  C     0.52633   0.31250   0.71585   0.00000  Uiso   1.00
C2169  C     0.59865   0.31250   0.65475   0.00000  Uiso   1.00
O2170  O     0.62568   0.43750   0.63990   0.00000  Uiso   1.00
C2171  C     0.57977   0.43750   0.57490   0.00000  Uiso   1.00
C2172  C     0.54525   0.43750   0.54572   0.00000  Uiso   1.00
C2173  C     0.59868   0.43750   0.59085   0.00000  Uiso   1.00
C2174  C     0.52635   0.43750   0.52975   0.00000  Uiso   1.00
O2175  O     0.50068   0.43750   0.73509   0.00000  Uiso   1.00
C2176  C     0.70477   0.43750   0.55010   0.00000  Uiso   1.00
C2177  C     0.67025   0.43750   0.57928   0.00000  Uiso   1.00
C2178  C     0.72367   0.43750   0.53415   0.00000  Uiso   1.00
C2179  C     0.65135   0.43750   0.59525   0.00000  Uiso   1.00
O2180  O     0.62432   0.31250   0.61010   0.00000  Uiso   1.00
C2181  C     0.67022   0.31250   0.67510   0.00000  Uiso   1.00
C2182  C     0.70475   0.31250   0.70427   0.00000  Uiso   1.00
C2183  C     0.65133   0.31250   0.65915   0.00000  Uiso   1.00
C2184  C     0.72365   0.31250   0.72025   0.00000  Uiso   1.00
C2185  C     0.80387   0.26780   0.69260   0.00000  Uiso   1.00
C2186  C     0.82113   0.26780   0.67800   0.00000  Uiso   1.00
O2187  O     0.76815   0.27008   0.72277   0.00000  Uiso   1.00
O2188  O     0.85683   0.27008   0.64782   0.00000  Uiso   1.00
C2189  C     0.82113   0.48220   0.56760   0.00000  Uiso   1.00
C2190  C     0.80387   0.48220   0.55300   0.00000  Uiso   1.00
O2191  O     0.85685   0.47992   0.59777   0.00000  Uiso   1.00
O2192  O     0.76818   0.47992   0.52282   0.00000  Uiso   1.00
C2193  C     0.94613   0.39280   0.55740   0.00000  Uiso   1.00
C2194  C     0.92887   0.39280   0.57200   0.00000  Uiso   1.00
O2195  O     0.98185   0.39508   0.52722   0.00000  Uiso   1.00
O2196  O     0.89317   0.39508   0.60217   0.00000  Uiso   1.00
C2197  C     0.92887   0.35720   0.68240   0.00000  Uiso   1.00
C2198  C     0.94613   0.35720   0.69700   0.00000  Uiso   1.00
O2199  O     0.89315   0.35492   0.65222   0.00000  Uiso   1.00
O2200  O     0.98182   0.35492   0.72717   0.00000  Uiso   1.00
C2201  C     0.94613   0.48220   0.55740   0.00000  Uiso   1.00
C2202  C     0.92887   0.48220   0.57200   0.00000  Uiso   1.00
O2203  O     0.98185   0.47992   0.52722   0.00000  Uiso   1.00
O2204  O     0.89317   0.47992   0.60217   0.00000  Uiso   1.00
C2205  C     0.92887   0.26780   0.68240   0.00000  Uiso   1.00
C2206  C     0.94613   0.26780   0.69700   0.00000  Uiso   1.00
O2207  O     0.89315   0.27008   0.65222   0.00000  Uiso   1.00
O2208  O     0.98182   0.27008   0.72717   0.00000  Uiso   1.00
C2209  C     0.80387   0.35720   0.69260   0.00000  Uiso   1.00
C2210  C     0.82113   0.35720   0.67800   0.00000  Uiso   1.00
O2211  O     0.76815   0.35492   0.72277   0.00000  Uiso   1.00
O2212  O     0.85683   0.35492   0.64782   0.00000  Uiso   1.00
C2213  C     0.82113   0.39280   0.56760   0.00000  Uiso   1.00
C2214  C     0.80387   0.39280   0.55300   0.00000  Uiso   1.00
O2215  O     0.85685   0.39508   0.59777   0.00000  Uiso   1.00
O2216  O     0.76818   0.39508   0.52282   0.00000  Uiso   1.00
Al2217 Al    0.75000   0.25000   0.50000   0.00000  Uiso   1.00
Al2218 Al    0.87500   0.25000   0.62500   0.00000  Uiso   1.00
Al2219 Al    0.75000   0.37500   0.50000   0.00000  Uiso   1.00
Al2220 Al    0.87500   0.37500   0.62500   0.00000  Uiso   1.00
O2221  O     0.99932   0.31250   0.51490   0.00000  Uiso   1.00
C2222  C     0.79523   0.31250   0.69990   0.00000  Uiso   1.00
C2223  C     0.82975   0.31250   0.67072   0.00000  Uiso   1.00
C2224  C     0.77633   0.31250   0.71585   0.00000  Uiso   1.00
C2225  C     0.84865   0.31250   0.65475   0.00000  Uiso   1.00
O2226  O     0.87568   0.43750   0.63990   0.00000  Uiso   1.00
C2227  C     0.82977   0.43750   0.57490   0.00000  Uiso   1.00
C2228  C     0.79525   0.43750   0.54572   0.00000  Uiso   1.00
C2229  C     0.84867   0.43750   0.59085   0.00000  Uiso   1.00
C2230  C     0.77635   0.43750   0.52975   0.00000  Uiso   1.00
O2231  O     0.75068   0.43750   0.73509   0.00000  Uiso   1.00
C2232  C     0.95477   0.43750   0.55010   0.00000  Uiso   1.00
C2233  C     0.92025   0.43750   0.57928   0.00000  Uiso   1.00
C2234  C     0.97367   0.43750   0.53415   0.00000  Uiso   1.00
C2235  C     0.90135   0.43750   0.59525   0.00000  Uiso   1.00
O2236  O     0.87432   0.31250   0.61010   0.00000  Uiso   1.00
C2237  C     0.92022   0.31250   0.67510   0.00000  Uiso   1.00
C2238  C     0.95475   0.31250   0.70427   0.00000  Uiso   1.00
C2239  C     0.90133   0.31250   0.65915   0.00000  Uiso   1.00
C2240  C     0.97365   0.31250   0.72025   0.00000  Uiso   1.00
C2241  C     0.05387   0.51780   0.69260   0.00000  Uiso   1.00
C2242  C     0.07113   0.51780   0.67800   0.00000  Uiso   1.00
O2243  O     0.01815   0.52008   0.72277   0.00000  Uiso   1.00
O2244  O     0.10683   0.52008   0.64782   0.00000  Uiso   1.00
C2245  C     0.07113   0.73220   0.56760   0.00000  Uiso   1.00
C2246  C     0.05387   0.73220   0.55300   0.00000  Uiso   1.00
O2247  O     0.10685   0.72992   0.59777   0.00000  Uiso   1.00
O2248  O     0.01818   0.72992   0.52282   0.00000  Uiso   1.00
C2249  C     0.19613   0.64280   0.55740   0.00000  Uiso   1.00
C2250  C     0.17887   0.64280   0.57200   0.00000  Uiso   1.00
O2251  O     0.23185   0.64508   0.52722   0.00000  Uiso   1.00
O2252  O     0.14317   0.64508   0.60217   0.00000  Uiso   1.00
C2253  C     0.17887   0.60720   0.68240   0.00000  Uiso   1.00
C2254  C     0.19613   0.60720   0.69700   0.00000  Uiso   1.00
O2255  O     0.14315   0.60492   0.65222   0.00000  Uiso   1.00
O2256  O     0.23182   0.60492   0.72717   0.00000  Uiso   1.00
C2257  C     0.19613   0.73220   0.55740   0.00000  Uiso   1.00
C2258  C     0.17887   0.73220   0.57200   0.00000  Uiso   1.00
O2259  O     0.23185   0.72992   0.52722   0.00000  Uiso   1.00
O2260  O     0.14317   0.72992   0.60217   0.00000  Uiso   1.00
C2261  C     0.17887   0.51780   0.68240   0.00000  Uiso   1.00
C2262  C     0.19613   0.51780   0.69700   0.00000  Uiso   1.00
O2263  O     0.14315   0.52008   0.65222   0.00000  Uiso   1.00
O2264  O     0.23182   0.52008   0.72717   0.00000  Uiso   1.00
C2265  C     0.05387   0.60720   0.69260   0.00000  Uiso   1.00
C2266  C     0.07113   0.60720   0.67800   0.00000  Uiso   1.00
O2267  O     0.01815   0.60492   0.72277   0.00000  Uiso   1.00
O2268  O     0.10683   0.60492   0.64782   0.00000  Uiso   1.00
C2269  C     0.07113   0.64280   0.56760   0.00000  Uiso   1.00
C2270  C     0.05387   0.64280   0.55300   0.00000  Uiso   1.00
O2271  O     0.10685   0.64508   0.59777   0.00000  Uiso   1.00
O2272  O     0.01818   0.64508   0.52282   0.00000  Uiso   1.00
Al2273 Al    0.00000   0.50000   0.50000   0.00000  Uiso   1.00
Al2274 Al    0.12500   0.50000   0.62500   0.00000  Uiso   1.00
Al2275 Al    0.00000   0.62500   0.50000   0.00000  Uiso   1.00
Al2276 Al    0.12500   0.62500   0.62500   0.00000  Uiso   1.00
O2277  O     0.24932   0.56250   0.51490   0.00000  Uiso   1.00
C2278  C     0.04523   0.56250   0.69990   0.00000  Uiso   1.00
C2279  C     0.07975   0.56250   0.67072   0.00000  Uiso   1.00
C2280  C     0.02633   0.56250   0.71585   0.00000  Uiso   1.00
C2281  C     0.09865   0.56250   0.65475   0.00000  Uiso   1.00
O2282  O     0.12568   0.68750   0.63990   0.00000  Uiso   1.00
C2283  C     0.07977   0.68750   0.57490   0.00000  Uiso   1.00
C2284  C     0.04525   0.68750   0.54572   0.00000  Uiso   1.00
C2285  C     0.09868   0.68750   0.59085   0.00000  Uiso   1.00
C2286  C     0.02635   0.68750   0.52975   0.00000  Uiso   1.00
O2287  O     0.00068   0.68750   0.73509   0.00000  Uiso   1.00
C2288  C     0.20477   0.68750   0.55010   0.00000  Uiso   1.00
C2289  C     0.17025   0.68750   0.57928   0.00000  Uiso   1.00
C2290  C     0.22367   0.68750   0.53415   0.00000  Uiso   1.00
C2291  C     0.15135   0.68750   0.59525   0.00000  Uiso   1.00
O2292  O     0.12432   0.56250   0.61010   0.00000  Uiso   1.00
C2293  C     0.17022   0.56250   0.67510   0.00000  Uiso   1.00
C2294  C     0.20475   0.56250   0.70427   0.00000  Uiso   1.00
C2295  C     0.15133   0.56250   0.65915   0.00000  Uiso   1.00
C2296  C     0.22365   0.56250   0.72025   0.00000  Uiso   1.00
C2297  C     0.30387   0.51780   0.69260   0.00000  Uiso   1.00
C2298  C     0.32113   0.51780   0.67800   0.00000  Uiso   1.00
O2299  O     0.26815   0.52008   0.72277   0.00000  Uiso   1.00
O2300  O     0.35682   0.52008   0.64782   0.00000  Uiso   1.00
C2301  C     0.32113   0.73220   0.56760   0.00000  Uiso   1.00
C2302  C     0.30387   0.73220   0.55300   0.00000  Uiso   1.00
O2303  O     0.35685   0.72992   0.59777   0.00000  Uiso   1.00
O2304  O     0.26818   0.72992   0.52282   0.00000  Uiso   1.00
C2305  C     0.44613   0.64280   0.55740   0.00000  Uiso   1.00
C2306  C     0.42887   0.64280   0.57200   0.00000  Uiso   1.00
O2307  O     0.48185   0.64508   0.52722   0.00000  Uiso   1.00
O2308  O     0.39317   0.64508   0.60217   0.00000  Uiso   1.00
C2309  C     0.42887   0.60720   0.68240   0.00000  Uiso   1.00
C2310  C     0.44613   0.60720   0.69700   0.00000  Uiso   1.00
O2311  O     0.39315   0.60492   0.65222   0.00000  Uiso   1.00
O2312  O     0.48182   0.60492   0.72717   0.00000  Uiso   1.00
C2313  C     0.44613   0.73220   0.55740   0.00000  Uiso   1.00
C2314  C     0.42887   0.73220   0.57200   0.00000  Uiso   1.00
O2315  O     0.48185   0.72992   0.52722   0.00000  Uiso   1.00
O2316  O     0.39317   0.72992   0.60217   0.00000  Uiso   1.00
C2317  C     0.42887   0.51780   0.68240   0.00000  Uiso   1.00
C2318  C     0.44613   0.51780   0.69700   0.00000  Uiso   1.00
O2319  O     0.39315   0.52008   0.65222   0.00000  Uiso   1.00
O2320  O     0.48182   0.52008   0.72717   0.00000  Uiso   1.00
C2321  C     0.30387   0.60720   0.69260   0.00000  Uiso   1.00
C2322  C     0.32113   0.60720   0.67800   0.00000  Uiso   1.00
O2323  O     0.26815   0.60492   0.72277   0.00000  Uiso   1.00
O2324  O     0.35682   0.60492   0.64782   0.00000  Uiso   1.00
C2325  C     0.32113   0.64280   0.56760   0.00000  Uiso   1.00
C2326  C     0.30387   0.64280   0.55300   0.00000  Uiso   1.00
O2327  O     0.35685   0.64508   0.59777   0.00000  Uiso   1.00
O2328  O     0.26818   0.64508   0.52282   0.00000  Uiso   1.00
Al2329 Al    0.25000   0.50000   0.50000   0.00000  Uiso   1.00
Al2330 Al    0.37500   0.50000   0.62500   0.00000  Uiso   1.00
Al2331 Al    0.25000   0.62500   0.50000   0.00000  Uiso   1.00
Al2332 Al    0.37500   0.62500   0.62500   0.00000  Uiso   1.00
O2333  O     0.49932   0.56250   0.51490   0.00000  Uiso   1.00
C2334  C     0.29523   0.56250   0.69990   0.00000  Uiso   1.00
C2335  C     0.32975   0.56250   0.67072   0.00000  Uiso   1.00
C2336  C     0.27633   0.56250   0.71585   0.00000  Uiso   1.00
C2337  C     0.34865   0.56250   0.65475   0.00000  Uiso   1.00
O2338  O     0.37568   0.68750   0.63990   0.00000  Uiso   1.00
C2339  C     0.32977   0.68750   0.57490   0.00000  Uiso   1.00
C2340  C     0.29525   0.68750   0.54572   0.00000  Uiso   1.00
C2341  C     0.34868   0.68750   0.59085   0.00000  Uiso   1.00
C2342  C     0.27635   0.68750   0.52975   0.00000  Uiso   1.00
O2343  O     0.25068   0.68750   0.73509   0.00000  Uiso   1.00
C2344  C     0.45477   0.68750   0.55010   0.00000  Uiso   1.00
C2345  C     0.42025   0.68750   0.57928   0.00000  Uiso   1.00
C2346  C     0.47367   0.68750   0.53415   0.00000  Uiso   1.00
C2347  C     0.40135   0.68750   0.59525   0.00000  Uiso   1.00
O2348  O     0.37432   0.56250   0.61010   0.00000  Uiso   1.00
C2349  C     0.42022   0.56250   0.67510   0.00000  Uiso   1.00
C2350  C     0.45475   0.56250   0.70427   0.00000  Uiso   1.00
C2351  C     0.40133   0.56250   0.65915   0.00000  Uiso   1.00
C2352  C     0.47365   0.56250   0.72025   0.00000  Uiso   1.00
C2353  C     0.55387   0.51780   0.69260   0.00000  Uiso   1.00
C2354  C     0.57113   0.51780   0.67800   0.00000  Uiso   1.00
O2355  O     0.51815   0.52008   0.72277   0.00000  Uiso   1.00
O2356  O     0.60683   0.52008   0.64782   0.00000  Uiso   1.00
C2357  C     0.57113   0.73220   0.56760   0.00000  Uiso   1.00
C2358  C     0.55387   0.73220   0.55300   0.00000  Uiso   1.00
O2359  O     0.60685   0.72992   0.59777   0.00000  Uiso   1.00
O2360  O     0.51818   0.72992   0.52282   0.00000  Uiso   1.00
C2361  C     0.69613   0.64280   0.55740   0.00000  Uiso   1.00
C2362  C     0.67887   0.64280   0.57200   0.00000  Uiso   1.00
O2363  O     0.73185   0.64508   0.52722   0.00000  Uiso   1.00
O2364  O     0.64317   0.64508   0.60217   0.00000  Uiso   1.00
C2365  C     0.67887   0.60720   0.68240   0.00000  Uiso   1.00
C2366  C     0.69613   0.60720   0.69700   0.00000  Uiso   1.00
O2367  O     0.64315   0.60492   0.65222   0.00000  Uiso   1.00
O2368  O     0.73182   0.60492   0.72717   0.00000  Uiso   1.00
C2369  C     0.69613   0.73220   0.55740   0.00000  Uiso   1.00
C2370  C     0.67887   0.73220   0.57200   0.00000  Uiso   1.00
O2371  O     0.73185   0.72992   0.52722   0.00000  Uiso   1.00
O2372  O     0.64317   0.72992   0.60217   0.00000  Uiso   1.00
C2373  C     0.67887   0.51780   0.68240   0.00000  Uiso   1.00
C2374  C     0.69613   0.51780   0.69700   0.00000  Uiso   1.00
O2375  O     0.64315   0.52008   0.65222   0.00000  Uiso   1.00
O2376  O     0.73182   0.52008   0.72717   0.00000  Uiso   1.00
C2377  C     0.55387   0.60720   0.69260   0.00000  Uiso   1.00
C2378  C     0.57113   0.60720   0.67800   0.00000  Uiso   1.00
O2379  O     0.51815   0.60492   0.72277   0.00000  Uiso   1.00
O2380  O     0.60683   0.60492   0.64782   0.00000  Uiso   1.00
C2381  C     0.57113   0.64280   0.56760   0.00000  Uiso   1.00
C2382  C     0.55387   0.64280   0.55300   0.00000  Uiso   1.00
O2383  O     0.60685   0.64508   0.59777   0.00000  Uiso   1.00
O2384  O     0.51818   0.64508   0.52282   0.00000  Uiso   1.00
Al2385 Al    0.50000   0.50000   0.50000   0.00000  Uiso   1.00
Al2386 Al    0.62500   0.50000   0.62500   0.00000  Uiso   1.00
Al2387 Al    0.50000   0.62500   0.50000   0.00000  Uiso   1.00
Al2388 Al    0.62500   0.62500   0.62500   0.00000  Uiso   1.00
O2389  O     0.74932   0.56250   0.51490   0.00000  Uiso   1.00
C2390  C     0.54523   0.56250   0.69990   0.00000  Uiso   1.00
C2391  C     0.57975   0.56250   0.67072   0.00000  Uiso   1.00
C2392  C     0.52633   0.56250   0.71585   0.00000  Uiso   1.00
C2393  C     0.59865   0.56250   0.65475   0.00000  Uiso   1.00
O2394  O     0.62568   0.68750   0.63990   0.00000  Uiso   1.00
C2395  C     0.57977   0.68750   0.57490   0.00000  Uiso   1.00
C2396  C     0.54525   0.68750   0.54572   0.00000  Uiso   1.00
C2397  C     0.59868   0.68750   0.59085   0.00000  Uiso   1.00
C2398  C     0.52635   0.68750   0.52975   0.00000  Uiso   1.00
O2399  O     0.50068   0.68750   0.73509   0.00000  Uiso   1.00
C2400  C     0.70477   0.68750   0.55010   0.00000  Uiso   1.00
C2401  C     0.67025   0.68750   0.57928   0.00000  Uiso   1.00
C2402  C     0.72367   0.68750   0.53415   0.00000  Uiso   1.00
C2403  C     0.65135   0.68750   0.59525   0.00000  Uiso   1.00
O2404  O     0.62432   0.56250   0.61010   0.00000  Uiso   1.00
C2405  C     0.67022   0.56250   0.67510   0.00000  Uiso   1.00
C2406  C     0.70475   0.56250   0.70427   0.00000  Uiso   1.00
C2407  C     0.65133   0.56250   0.65915   0.00000  Uiso   1.00
C2408  C     0.72365   0.56250   0.72025   0.00000  Uiso   1.00
C2409  C     0.80387   0.51780   0.69260   0.00000  Uiso   1.00
C2410  C     0.82113   0.51780   0.67800   0.00000  Uiso   1.00
O2411  O     0.76815   0.52008   0.72277   0.00000  Uiso   1.00
O2412  O     0.85683   0.52008   0.64782   0.00000  Uiso   1.00
C2413  C     0.82113   0.73220   0.56760   0.00000  Uiso   1.00
C2414  C     0.80387   0.73220   0.55300   0.00000  Uiso   1.00
O2415  O     0.85685   0.72992   0.59777   0.00000  Uiso   1.00
O2416  O     0.76818   0.72992   0.52282   0.00000  Uiso   1.00
C2417  C     0.94613   0.64280   0.55740   0.00000  Uiso   1.00
C2418  C     0.92887   0.64280   0.57200   0.00000  Uiso   1.00
O2419  O     0.98185   0.64508   0.52722   0.00000  Uiso   1.00
O2420  O     0.89317   0.64508   0.60217   0.00000  Uiso   1.00
C2421  C     0.92887   0.60720   0.68240   0.00000  Uiso   1.00
C2422  C     0.94613   0.60720   0.69700   0.00000  Uiso   1.00
O2423  O     0.89315   0.60492   0.65222   0.00000  Uiso   1.00
O2424  O     0.98182   0.60492   0.72717   0.00000  Uiso   1.00
C2425  C     0.94613   0.73220   0.55740   0.00000  Uiso   1.00
C2426  C     0.92887   0.73220   0.57200   0.00000  Uiso   1.00
O2427  O     0.98185   0.72992   0.52722   0.00000  Uiso   1.00
O2428  O     0.89317   0.72992   0.60217   0.00000  Uiso   1.00
C2429  C     0.92887   0.51780   0.68240   0.00000  Uiso   1.00
C2430  C     0.94613   0.51780   0.69700   0.00000  Uiso   1.00
O2431  O     0.89315   0.52008   0.65222   0.00000  Uiso   1.00
O2432  O     0.98182   0.52008   0.72717   0.00000  Uiso   1.00
C2433  C     0.80387   0.60720   0.69260   0.00000  Uiso   1.00
C2434  C     0.82113   0.60720   0.67800   0.00000  Uiso   1.00
O2435  O     0.76815   0.60492   0.72277   0.00000  Uiso   1.00
O2436  O     0.85683   0.60492   0.64782   0.00000  Uiso   1.00
C2437  C     0.82113   0.64280   0.56760   0.00000  Uiso   1.00
C2438  C     0.80387   0.64280   0.55300   0.00000  Uiso   1.00
O2439  O     0.85685   0.64508   0.59777   0.00000  Uiso   1.00
O2440  O     0.76818   0.64508   0.52282   0.00000  Uiso   1.00
Al2441 Al    0.75000   0.50000   0.50000   0.00000  Uiso   1.00
Al2442 Al    0.87500   0.50000   0.62500   0.00000  Uiso   1.00
Al2443 Al    0.75000   0.62500   0.50000   0.00000  Uiso   1.00
Al2444 Al    0.87500   0.62500   0.62500   0.00000  Uiso   1.00
O2445  O     0.99932   0.56250   0.51490   0.00000  Uiso   1.00
C2446  C     0.79523   0.56250   0.69990   0.00000  Uiso   1.00
C2447  C     0.82975   0.56250   0.67072   0.00000  Uiso   1.00
C2448  C     0.77633   0.56250   0.71585   0.00000  Uiso   1.00
C2449  C     0.84865   0.56250   0.65475   0.00000  Uiso   1.00
O2450  O     0.87568   0.68750   0.63990   0.00000  Uiso   1.00
C2451  C     0.82977   0.68750   0.57490   0.00000  Uiso   1.00
C2452  C     0.79525   0.68750   0.54572   0.00000  Uiso   1.00
C2453  C     0.84867   0.68750   0.59085   0.00000  Uiso   1.00
C2454  C     0.77635   0.68750   0.52975   0.00000  Uiso   1.00
O2455  O     0.75068   0.68750   0.73509   0.00000  Uiso   1.00
C2456  C     0.95477   0.68750   0.55010   0.00000  Uiso   1.00
C2457  C     0.92025   0.68750   0.57928   0.00000  Uiso   1.00
C2458  C     0.97367   0.68750   0.53415   0.00000  Uiso   1.00
C2459  C     0.90135   0.68750   0.59525   0.00000  Uiso   1.00
O2460  O     0.87432   0.56250   0.61010   0.00000  Uiso   1.00
C2461  C     0.92022   0.56250   0.67510   0.00000  Uiso   1.00
C2462  C     0.95475   0.56250   0.70427   0.00000  Uiso   1.00
C2463  C     0.90133   0.56250   0.65915   0.00000  Uiso   1.00
C2464  C     0.97365   0.56250   0.72025   0.00000  Uiso   1.00
C2465  C     0.05387   0.76780   0.69260   0.00000  Uiso   1.00
C2466  C     0.07113   0.76780   0.67800   0.00000  Uiso   1.00
O2467  O     0.01815   0.77008   0.72277   0.00000  Uiso   1.00
O2468  O     0.10683   0.77008   0.64782   0.00000  Uiso   1.00
C2469  C     0.07113   0.98220   0.56760   0.00000  Uiso   1.00
C2470  C     0.05387   0.98220   0.55300   0.00000  Uiso   1.00
O2471  O     0.10685   0.97992   0.59777   0.00000  Uiso   1.00
O2472  O     0.01818   0.97992   0.52282   0.00000  Uiso   1.00
C2473  C     0.19613   0.89280   0.55740   0.00000  Uiso   1.00
C2474  C     0.17887   0.89280   0.57200   0.00000  Uiso   1.00
O2475  O     0.23185   0.89508   0.52722   0.00000  Uiso   1.00
O2476  O     0.14317   0.89508   0.60217   0.00000  Uiso   1.00
C2477  C     0.17887   0.85720   0.68240   0.00000  Uiso   1.00
C2478  C     0.19613   0.85720   0.69700   0.00000  Uiso   1.00
O2479  O     0.14315   0.85492   0.65222   0.00000  Uiso   1.00
O2480  O     0.23182   0.85492   0.72717   0.00000  Uiso   1.00
C2481  C     0.19613   0.98220   0.55740   0.00000  Uiso   1.00
C2482  C     0.17887   0.98220   0.57200   0.00000  Uiso   1.00
O2483  O     0.23185   0.97992   0.52722   0.00000  Uiso   1.00
O2484  O     0.14317   0.97992   0.60217   0.00000  Uiso   1.00
C2485  C     0.17887   0.76780   0.68240   0.00000  Uiso   1.00
C2486  C     0.19613   0.76780   0.69700   0.00000  Uiso   1.00
O2487  O     0.14315   0.77008   0.65222   0.00000  Uiso   1.00
O2488  O     0.23182   0.77008   0.72717   0.00000  Uiso   1.00
C2489  C     0.05387   0.85720   0.69260   0.00000  Uiso   1.00
C2490  C     0.07113   0.85720   0.67800   0.00000  Uiso   1.00
O2491  O     0.01815   0.85492   0.72277   0.00000  Uiso   1.00
O2492  O     0.10683   0.85492   0.64782   0.00000  Uiso   1.00
C2493  C     0.07113   0.89280   0.56760   0.00000  Uiso   1.00
C2494  C     0.05387   0.89280   0.55300   0.00000  Uiso   1.00
O2495  O     0.10685   0.89508   0.59777   0.00000  Uiso   1.00
O2496  O     0.01818   0.89508   0.52282   0.00000  Uiso   1.00
Al2497 Al    0.00000   0.75000   0.50000   0.00000  Uiso   1.00
Al2498 Al    0.12500   0.75000   0.62500   0.00000  Uiso   1.00
Al2499 Al    0.00000   0.87500   0.50000   0.00000  Uiso   1.00
Al2500 Al    0.12500   0.87500   0.62500   0.00000  Uiso   1.00
O2501  O     0.24932   0.81250   0.51490   0.00000  Uiso   1.00
C2502  C     0.04523   0.81250   0.69990   0.00000  Uiso   1.00
C2503  C     0.07975   0.81250   0.67072   0.00000  Uiso   1.00
C2504  C     0.02633   0.81250   0.71585   0.00000  Uiso   1.00
C2505  C     0.09865   0.81250   0.65475   0.00000  Uiso   1.00
O2506  O     0.12568   0.93750   0.63990   0.00000  Uiso   1.00
C2507  C     0.07977   0.93750   0.57490   0.00000  Uiso   1.00
C2508  C     0.04525   0.93750   0.54572   0.00000  Uiso   1.00
C2509  C     0.09868   0.93750   0.59085   0.00000  Uiso   1.00
C2510  C     0.02635   0.93750   0.52975   0.00000  Uiso   1.00
O2511  O     0.00068   0.93750   0.73509   0.00000  Uiso   1.00
C2512  C     0.20477   0.93750   0.55010   0.00000  Uiso   1.00
C2513  C     0.17025   0.93750   0.57928   0.00000  Uiso   1.00
C2514  C     0.22367   0.93750   0.53415   0.00000  Uiso   1.00
C2515  C     0.15135   0.93750   0.59525   0.00000  Uiso   1.00
O2516  O     0.12432   0.81250   0.61010   0.00000  Uiso   1.00
C2517  C     0.17022   0.81250   0.67510   0.00000  Uiso   1.00
C2518  C     0.20475   0.81250   0.70427   0.00000  Uiso   1.00
C2519  C     0.15133   0.81250   0.65915   0.00000  Uiso   1.00
C2520  C     0.22365   0.81250   0.72025   0.00000  Uiso   1.00
C2521  C     0.30387   0.76780   0.69260   0.00000  Uiso   1.00
C2522  C     0.32113   0.76780   0.67800   0.00000  Uiso   1.00
O2523  O     0.26815   0.77008   0.72277   0.00000  Uiso   1.00
O2524  O     0.35682   0.77008   0.64782   0.00000  Uiso   1.00
C2525  C     0.32113   0.98220   0.56760   0.00000  Uiso   1.00
C2526  C     0.30387   0.98220   0.55300   0.00000  Uiso   1.00
O2527  O     0.35685   0.97992   0.59777   0.00000  Uiso   1.00
O2528  O     0.26818   0.97992   0.52282   0.00000  Uiso   1.00
C2529  C     0.44613   0.89280   0.55740   0.00000  Uiso   1.00
C2530  C     0.42887   0.89280   0.57200   0.00000  Uiso   1.00
O2531  O     0.48185   0.89508   0.52722   0.00000  Uiso   1.00
O2532  O     0.39317   0.89508   0.60217   0.00000  Uiso   1.00
C2533  C     0.42887   0.85720   0.68240   0.00000  Uiso   1.00
C2534  C     0.44613   0.85720   0.69700   0.00000  Uiso   1.00
O2535  O     0.39315   0.85492   0.65222   0.00000  Uiso   1.00
O2536  O     0.48182   0.85492   0.72717   0.00000  Uiso   1.00
C2537  C     0.44613   0.98220   0.55740   0.00000  Uiso   1.00
C2538  C     0.42887   0.98220   0.57200   0.00000  Uiso   1.00
O2539  O     0.48185   0.97992   0.52722   0.00000  Uiso   1.00
O2540  O     0.39317   0.97992   0.60217   0.00000  Uiso   1.00
C2541  C     0.42887   0.76780   0.68240   0.00000  Uiso   1.00
C2542  C     0.44613   0.76780   0.69700   0.00000  Uiso   1.00
O2543  O     0.39315   0.77008   0.65222   0.00000  Uiso   1.00
O2544  O     0.48182   0.77008   0.72717   0.00000  Uiso   1.00
C2545  C     0.30387   0.85720   0.69260   0.00000  Uiso   1.00
C2546  C     0.32113   0.85720   0.67800   0.00000  Uiso   1.00
O2547  O     0.26815   0.85492   0.72277   0.00000  Uiso   1.00
O2548  O     0.35682   0.85492   0.64782   0.00000  Uiso   1.00
C2549  C     0.32113   0.89280   0.56760   0.00000  Uiso   1.00
C2550  C     0.30387   0.89280   0.55300   0.00000  Uiso   1.00
O2551  O     0.35685   0.89508   0.59777   0.00000  Uiso   1.00
O2552  O     0.26818   0.89508   0.52282   0.00000  Uiso   1.00
Al2553 Al    0.25000   0.75000   0.50000   0.00000  Uiso   1.00
Al2554 Al    0.37500   0.75000   0.62500   0.00000  Uiso   1.00
Al2555 Al    0.25000   0.87500   0.50000   0.00000  Uiso   1.00
Al2556 Al    0.37500   0.87500   0.62500   0.00000  Uiso   1.00
O2557  O     0.49932   0.81250   0.51490   0.00000  Uiso   1.00
C2558  C     0.29523   0.81250   0.69990   0.00000  Uiso   1.00
C2559  C     0.32975   0.81250   0.67072   0.00000  Uiso   1.00
C2560  C     0.27633   0.81250   0.71585   0.00000  Uiso   1.00
C2561  C     0.34865   0.81250   0.65475   0.00000  Uiso   1.00
O2562  O     0.37568   0.93750   0.63990   0.00000  Uiso   1.00
C2563  C     0.32977   0.93750   0.57490   0.00000  Uiso   1.00
C2564  C     0.29525   0.93750   0.54572   0.00000  Uiso   1.00
C2565  C     0.34868   0.93750   0.59085   0.00000  Uiso   1.00
C2566  C     0.27635   0.93750   0.52975   0.00000  Uiso   1.00
O2567  O     0.25068   0.93750   0.73509   0.00000  Uiso   1.00
C2568  C     0.45477   0.93750   0.55010   0.00000  Uiso   1.00
C2569  C     0.42025   0.93750   0.57928   0.00000  Uiso   1.00
C2570  C     0.47367   0.93750   0.53415   0.00000  Uiso   1.00
C2571  C     0.40135   0.93750   0.59525   0.00000  Uiso   1.00
O2572  O     0.37432   0.81250   0.61010   0.00000  Uiso   1.00
C2573  C     0.42022   0.81250   0.67510   0.00000  Uiso   1.00
C2574  C     0.45475   0.81250   0.70427   0.00000  Uiso   1.00
C2575  C     0.40133   0.81250   0.65915   0.00000  Uiso   1.00
C2576  C     0.47365   0.81250   0.72025   0.00000  Uiso   1.00
C2577  C     0.55387   0.76780   0.69260   0.00000  Uiso   1.00
C2578  C     0.57113   0.76780   0.67800   0.00000  Uiso   1.00
O2579  O     0.51815   0.77008   0.72277   0.00000  Uiso   1.00
O2580  O     0.60683   0.77008   0.64782   0.00000  Uiso   1.00
C2581  C     0.57113   0.98220   0.56760   0.00000  Uiso   1.00
C2582  C     0.55387   0.98220   0.55300   0.00000  Uiso   1.00
O2583  O     0.60685   0.97992   0.59777   0.00000  Uiso   1.00
O2584  O     0.51818   0.97992   0.52282   0.00000  Uiso   1.00
C2585  C     0.69613   0.89280   0.55740   0.00000  Uiso   1.00
C2586  C     0.67887   0.89280   0.57200   0.00000  Uiso   1.00
O2587  O     0.73185   0.89508   0.52722   0.00000  Uiso   1.00
O2588  O     0.64317   0.89508   0.60217   0.00000  Uiso   1.00
C2589  C     0.67887   0.85720   0.68240   0.00000  Uiso   1.00
C2590  C     0.69613   0.85720   0.69700   0.00000  Uiso   1.00
O2591  O     0.64315   0.85492   0.65222   0.00000  Uiso   1.00
O2592  O     0.73182   0.85492   0.72717   0.00000  Uiso   1.00
C2593  C     0.69613   0.98220   0.55740   0.00000  Uiso   1.00
C2594  C     0.67887   0.98220   0.57200   0.00000  Uiso   1.00
O2595  O     0.73185   0.97992   0.52722   0.00000  Uiso   1.00
O2596  O     0.64317   0.97992   0.60217   0.00000  Uiso   1.00
C2597  C     0.67887   0.76780   0.68240   0.00000  Uiso   1.00
C2598  C     0.69613   0.76780   0.69700   0.00000  Uiso   1.00
O2599  O     0.64315   0.77008   0.65222   0.00000  Uiso   1.00
O2600  O     0.73182   0.77008   0.72717   0.00000  Uiso   1.00
C2601  C     0.55387   0.85720   0.69260   0.00000  Uiso   1.00
C2602  C     0.57113   0.85720   0.67800   0.00000  Uiso   1.00
O2603  O     0.51815   0.85492   0.72277   0.00000  Uiso   1.00
O2604  O     0.60683   0.85492   0.64782   0.00000  Uiso   1.00
C2605  C     0.57113   0.89280   0.56760   0.00000  Uiso   1.00
C2606  C     0.55387   0.89280   0.55300   0.00000  Uiso   1.00
O2607  O     0.60685   0.89508   0.59777   0.00000  Uiso   1.00
O2608  O     0.51818   0.89508   0.52282   0.00000  Uiso   1.00
Al2609 Al    0.50000   0.75000   0.50000   0.00000  Uiso   1.00
Al2610 Al    0.62500   0.75000   0.62500   0.00000  Uiso   1.00
Al2611 Al    0.50000   0.87500   0.50000   0.00000  Uiso   1.00
Al2612 Al    0.62500   0.87500   0.62500   0.00000  Uiso   1.00
O2613  O     0.74932   0.81250   0.51490   0.00000  Uiso   1.00
C2614  C     0.54523   0.81250   0.69990   0.00000  Uiso   1.00
C2615  C     0.57975   0.81250   0.67072   0.00000  Uiso   1.00
C2616  C     0.52633   0.81250   0.71585   0.00000  Uiso   1.00
C2617  C     0.59865   0.81250   0.65475   0.00000  Uiso   1.00
O2618  O     0.62568   0.93750   0.63990   0.00000  Uiso   1.00
C2619  C     0.57977   0.93750   0.57490   0.00000  Uiso   1.00
C2620  C     0.54525   0.93750   0.54572   0.00000  Uiso   1.00
C2621  C     0.59868   0.93750   0.59085   0.00000  Uiso   1.00
C2622  C     0.52635   0.93750   0.52975   0.00000  Uiso   1.00
O2623  O     0.50068   0.93750   0.73509   0.00000  Uiso   1.00
C2624  C     0.70477   0.93750   0.55010   0.00000  Uiso   1.00
C2625  C     0.67025   0.93750   0.57928   0.00000  Uiso   1.00
C2626  C     0.72367   0.93750   0.53415   0.00000  Uiso   1.00
C2627  C     0.65135   0.93750   0.59525   0.00000  Uiso   1.00
O2628  O     0.62432   0.81250   0.61010   0.00000  Uiso   1.00
C2629  C     0.67022   0.81250   0.67510   0.00000  Uiso   1.00
C2630  C     0.70475   0.81250   0.70427   0.00000  Uiso   1.00
C2631  C     0.65133   0.81250   0.65915   0.00000  Uiso   1.00
C2632  C     0.72365   0.81250   0.72025   0.00000  Uiso   1.00
C2633  C     0.80387   0.76780   0.69260   0.00000  Uiso   1.00
C2634  C     0.82113   0.76780   0.67800   0.00000  Uiso   1.00
O2635  O     0.76815   0.77008   0.72277   0.00000  Uiso   1.00
O2636  O     0.85683   0.77008   0.64782   0.00000  Uiso   1.00
C2637  C     0.82113   0.98220   0.56760   0.00000  Uiso   1.00
C2638  C     0.80387   0.98220   0.55300   0.00000  Uiso   1.00
O2639  O     0.85685   0.97992   0.59777   0.00000  Uiso   1.00
O2640  O     0.76818   0.97992   0.52282   0.00000  Uiso   1.00
C2641  C     0.94613   0.89280   0.55740   0.00000  Uiso   1.00
C2642  C     0.92887   0.89280   0.57200   0.00000  Uiso   1.00
O2643  O     0.98185   0.89508   0.52722   0.00000  Uiso   1.00
O2644  O     0.89317   0.89508   0.60217   0.00000  Uiso   1.00
C2645  C     0.92887   0.85720   0.68240   0.00000  Uiso   1.00
C2646  C     0.94613   0.85720   0.69700   0.00000  Uiso   1.00
O2647  O     0.89315   0.85492   0.65222   0.00000  Uiso   1.00
O2648  O     0.98182   0.85492   0.72717   0.00000  Uiso   1.00
C2649  C     0.94613   0.98220   0.55740   0.00000  Uiso   1.00
C2650  C     0.92887   0.98220   0.57200   0.00000  Uiso   1.00
O2651  O     0.98185   0.97992   0.52722   0.00000  Uiso   1.00
O2652  O     0.89317   0.97992   0.60217   0.00000  Uiso   1.00
C2653  C     0.92887   0.76780   0.68240   0.00000  Uiso   1.00
C2654  C     0.94613   0.76780   0.69700   0.00000  Uiso   1.00
O2655  O     0.89315   0.77008   0.65222   0.00000  Uiso   1.00
O2656  O     0.98182   0.77008   0.72717   0.00000  Uiso   1.00
C2657  C     0.80387   0.85720   0.69260   0.00000  Uiso   1.00
C2658  C     0.82113   0.85720   0.67800   0.00000  Uiso   1.00
O2659  O     0.76815   0.85492   0.72277   0.00000  Uiso   1.00
O2660  O     0.85683   0.85492   0.64782   0.00000  Uiso   1.00
C2661  C     0.82113   0.89280   0.56760   0.00000  Uiso   1.00
C2662  C     0.80387   0.89280   0.55300   0.00000  Uiso   1.00
O2663  O     0.85685   0.89508   0.59777   0.00000  Uiso   1.00
O2664  O     0.76818   0.89508   0.52282   0.00000  Uiso   1.00
Al2665 Al    0.75000   0.75000   0.50000   0.00000  Uiso   1.00
Al2666 Al    0.87500   0.75000   0.62500   0.00000  Uiso   1.00
Al2667 Al    0.75000   0.87500   0.50000   0.00000  Uiso   1.00
Al2668 Al    0.87500   0.87500   0.62500   0.00000  Uiso   1.00
O2669  O     0.99932   0.81250   0.51490   0.00000  Uiso   1.00
C2670  C     0.79523   0.81250   0.69990   0.00000  Uiso   1.00
C2671  C     0.82975   0.81250   0.67072   0.00000  Uiso   1.00
C2672  C     0.77633   0.81250   0.71585   0.00000  Uiso   1.00
C2673  C     0.84865   0.81250   0.65475   0.00000  Uiso   1.00
O2674  O     0.87568   0.93750   0.63990   0.00000  Uiso   1.00
C2675  C     0.82977   0.93750   0.57490   0.00000  Uiso   1.00
C2676  C     0.79525   0.93750   0.54572   0.00000  Uiso   1.00
C2677  C     0.84867   0.93750   0.59085   0.00000  Uiso   1.00
C2678  C     0.77635   0.93750   0.52975   0.00000  Uiso   1.00
O2679  O     0.75068   0.93750   0.73509   0.00000  Uiso   1.00
C2680  C     0.95477   0.93750   0.55010   0.00000  Uiso   1.00
C2681  C     0.92025   0.93750   0.57928   0.00000  Uiso   1.00
C2682  C     0.97367   0.93750   0.53415   0.00000  Uiso   1.00
C2683  C     0.90135   0.93750   0.59525   0.00000  Uiso   1.00
O2684  O     0.87432   0.81250   0.61010   0.00000  Uiso   1.00
C2685  C     0.92022   0.81250   0.67510   0.00000  Uiso   1.00
C2686  C     0.95475   0.81250   0.70427   0.00000  Uiso   1.00
C2687  C     0.90133   0.81250   0.65915   0.00000  Uiso   1.00
C2688  C     0.97365   0.81250   0.72025   0.00000  Uiso   1.00
C2689  C     0.05387   0.01780   0.94260   0.00000  Uiso   1.00
C2690  C     0.07113   0.01780   0.92800   0.00000  Uiso   1.00
O2691  O     0.01815   0.02008   0.97277   0.00000  Uiso   1.00
O2692  O     0.10683   0.02008   0.89782   0.00000  Uiso   1.00
C2693  C     0.07113   0.23220   0.81760   0.00000  Uiso   1.00
C2694  C     0.05387   0.23220   0.80300   0.00000  Uiso   1.00
O2695  O     0.10685   0.22992   0.84777   0.00000  Uiso   1.00
O2696  O     0.01818   0.22992   0.77282   0.00000  Uiso   1.00
C2697  C     0.19613   0.14280   0.80740   0.00000  Uiso   1.00
C2698  C     0.17887   0.14280   0.82200   0.00000  Uiso   1.00
O2699  O     0.23185   0.14508   0.77723   0.00000  Uiso   1.00
O2700  O     0.14317   0.14508   0.85217   0.00000  Uiso   1.00
C2701  C     0.17887   0.10720   0.93240   0.00000  Uiso   1.00
C2702  C     0.19613   0.10720   0.94700   0.00000  Uiso   1.00
O2703  O     0.14315   0.10492   0.90222   0.00000  Uiso   1.00
O2704  O     0.23182   0.10492   0.97717   0.00000  Uiso   1.00
C2705  C     0.19613   0.23220   0.80740   0.00000  Uiso   1.00
C2706  C     0.17887   0.23220   0.82200   0.00000  Uiso   1.00
O2707  O     0.23185   0.22992   0.77723   0.00000  Uiso   1.00
O2708  O     0.14317   0.22992   0.85217   0.00000  Uiso   1.00
C2709  C     0.17887   0.01780   0.93240   0.00000  Uiso   1.00
C2710  C     0.19613   0.01780   0.94700   0.00000  Uiso   1.00
O2711  O     0.14315   0.02008   0.90222   0.00000  Uiso   1.00
O2712  O     0.23182   0.02008   0.97717   0.00000  Uiso   1.00
C2713  C     0.05387   0.10720   0.94260   0.00000  Uiso   1.00
C2714  C     0.07113   0.10720   0.92800   0.00000  Uiso   1.00
O2715  O     0.01815   0.10492   0.97277   0.00000  Uiso   1.00
O2716  O     0.10683   0.10492   0.89782   0.00000  Uiso   1.00
C2717  C     0.07113   0.14280   0.81760   0.00000  Uiso   1.00
C2718  C     0.05387   0.14280   0.80300   0.00000  Uiso   1.00
O2719  O     0.10685   0.14508   0.84777   0.00000  Uiso   1.00
O2720  O     0.01818   0.14508   0.77282   0.00000  Uiso   1.00
Al2721 Al    0.00000   0.00000   0.75000   0.00000  Uiso   1.00
Al2722 Al    0.12500   0.00000   0.87500   0.00000  Uiso   1.00
Al2723 Al    0.00000   0.12500   0.75000   0.00000  Uiso   1.00
Al2724 Al    0.12500   0.12500   0.87500   0.00000  Uiso   1.00
O2725  O     0.24932   0.06250   0.76490   0.00000  Uiso   1.00
C2726  C     0.04523   0.06250   0.94990   0.00000  Uiso   1.00
C2727  C     0.07975   0.06250   0.92072   0.00000  Uiso   1.00
C2728  C     0.02633   0.06250   0.96585   0.00000  Uiso   1.00
C2729  C     0.09865   0.06250   0.90475   0.00000  Uiso   1.00
O2730  O     0.12568   0.18750   0.88990   0.00000  Uiso   1.00
C2731  C     0.07977   0.18750   0.82490   0.00000  Uiso   1.00
C2732  C     0.04525   0.18750   0.79572   0.00000  Uiso   1.00
C2733  C     0.09868   0.18750   0.84085   0.00000  Uiso   1.00
C2734  C     0.02635   0.18750   0.77975   0.00000  Uiso   1.00
O2735  O     0.00068   0.18750   0.98509   0.00000  Uiso   1.00
C2736  C     0.20477   0.18750   0.80010   0.00000  Uiso   1.00
C2737  C     0.17025   0.18750   0.82928   0.00000  Uiso   1.00
C2738  C     0.22367   0.18750   0.78415   0.00000  Uiso   1.00
C2739  C     0.15135   0.18750   0.84525   0.00000  Uiso   1.00
O2740  O     0.12432   0.06250   0.86010   0.00000  Uiso   1.00
C2741  C     0.17022   0.06250   0.92510   0.00000  Uiso   1.00
C2742  C     0.20475   0.06250   0.95427   0.00000  Uiso   1.00
C2743  C     0.15133   0.06250   0.90915   0.00000  Uiso   1.00
C2744  C     0.22365   0.06250   0.97025   0.00000  Uiso   1.00
C2745  C     0.30387   0.01780   0.94260   0.00000  Uiso   1.00
C2746  C     0.32113   0.01780   0.92800   0.00000  Uiso   1.00
O2747  O     0.26815   0.02008   0.97277   0.00000  Uiso   1.00
O2748  O     0.35682   0.02008   0.89782   0.00000  Uiso   1.00
C2749  C     0.32113   0.23220   0.81760   0.00000  Uiso   1.00
C2750  C     0.30387   0.23220   0.80300   0.00000  Uiso   1.00
O2751  O     0.35685   0.22992   0.84777   0.00000  Uiso   1.00
O2752  O     0.26818   0.22992   0.77282   0.00000  Uiso   1.00
C2753  C     0.44613   0.14280   0.80740   0.00000  Uiso   1.00
C2754  C     0.42887   0.14280   0.82200   0.00000  Uiso   1.00
O2755  O     0.48185   0.14508   0.77723   0.00000  Uiso   1.00
O2756  O     0.39317   0.14508   0.85217   0.00000  Uiso   1.00
C2757  C     0.42887   0.10720   0.93240   0.00000  Uiso   1.00
C2758  C     0.44613   0.10720   0.94700   0.00000  Uiso   1.00
O2759  O     0.39315   0.10492   0.90222   0.00000  Uiso   1.00
O2760  O     0.48182   0.10492   0.97717   0.00000  Uiso   1.00
C2761  C     0.44613   0.23220   0.80740   0.00000  Uiso   1.00
C2762  C     0.42887   0.23220   0.82200   0.00000  Uiso   1.00
O2763  O     0.48185   0.22992   0.77723   0.00000  Uiso   1.00
O2764  O     0.39317   0.22992   0.85217   0.00000  Uiso   1.00
C2765  C     0.42887   0.01780   0.93240   0.00000  Uiso   1.00
C2766  C     0.44613   0.01780   0.94700   0.00000  Uiso   1.00
O2767  O     0.39315   0.02008   0.90222   0.00000  Uiso   1.00
O2768  O     0.48182   0.02008   0.97717   0.00000  Uiso   1.00
C2769  C     0.30387   0.10720   0.94260   0.00000  Uiso   1.00
C2770  C     0.32113   0.10720   0.92800   0.00000  Uiso   1.00
O2771  O     0.26815   0.10492   0.97277   0.00000  Uiso   1.00
O2772  O     0.35682   0.10492   0.89782   0.00000  Uiso   1.00
C2773  C     0.32113   0.14280   0.81760   0.00000  Uiso   1.00
C2774  C     0.30387   0.14280   0.80300   0.00000  Uiso   1.00
O2775  O     0.35685   0.14508   0.84777   0.00000  Uiso   1.00
O2776  O     0.26818   0.14508   0.77282   0.00000  Uiso   1.00
Al2777 Al    0.25000   0.00000   0.75000   0.00000  Uiso   1.00
Al2778 Al    0.37500   0.00000   0.87500   0.00000  Uiso   1.00
Al2779 Al    0.25000   0.12500   0.75000   0.00000  Uiso   1.00
Al2780 Al    0.37500   0.12500   0.87500   0.00000  Uiso   1.00
O2781  O     0.49932   0.06250   0.76490   0.00000  Uiso   1.00
C2782  C     0.29523   0.06250   0.94990   0.00000  Uiso   1.00
C2783  C     0.32975   0.06250   0.92072   0.00000  Uiso   1.00
C2784  C     0.27633   0.06250   0.96585   0.00000  Uiso   1.00
C2785  C     0.34865   0.06250   0.90475   0.00000  Uiso   1.00
O2786  O     0.37568   0.18750   0.88990   0.00000  Uiso   1.00
C2787  C     0.32977   0.18750   0.82490   0.00000  Uiso   1.00
C2788  C     0.29525   0.18750   0.79572   0.00000  Uiso   1.00
C2789  C     0.34868   0.18750   0.84085   0.00000  Uiso   1.00
C2790  C     0.27635   0.18750   0.77975   0.00000  Uiso   1.00
O2791  O     0.25068   0.18750   0.98509   0.00000  Uiso   1.00
C2792  C     0.45477   0.18750   0.80010   0.00000  Uiso   1.00
C2793  C     0.42025   0.18750   0.82928   0.00000  Uiso   1.00
C2794  C     0.47367   0.18750   0.78415   0.00000  Uiso   1.00
C2795  C     0.40135   0.18750   0.84525   0.00000  Uiso   1.00
O2796  O     0.37432   0.06250   0.86010   0.00000  Uiso   1.00
C2797  C     0.42022   0.06250   0.92510   0.00000  Uiso   1.00
C2798  C     0.45475   0.06250   0.95427   0.00000  Uiso   1.00
C2799  C     0.40133   0.06250   0.90915   0.00000  Uiso   1.00
C2800  C     0.47365   0.06250   0.97025   0.00000  Uiso   1.00
C2801  C     0.55387   0.01780   0.94260   0.00000  Uiso   1.00
C2802  C     0.57113   0.01780   0.92800   0.00000  Uiso   1.00
O2803  O     0.51815   0.02008   0.97277   0.00000  Uiso   1.00
O2804  O     0.60683   0.02008   0.89782   0.00000  Uiso   1.00
C2805  C     0.57113   0.23220   0.81760   0.00000  Uiso   1.00
C2806  C     0.55387   0.23220   0.80300   0.00000  Uiso   1.00
O2807  O     0.60685   0.22992   0.84777   0.00000  Uiso   1.00
O2808  O     0.51818   0.22992   0.77282   0.00000  Uiso   1.00
C2809  C     0.69613   0.14280   0.80740   0.00000  Uiso   1.00
C2810  C     0.67887   0.14280   0.82200   0.00000  Uiso   1.00
O2811  O     0.73185   0.14508   0.77723   0.00000  Uiso   1.00
O2812  O     0.64317   0.14508   0.85217   0.00000  Uiso   1.00
C2813  C     0.67887   0.10720   0.93240   0.00000  Uiso   1.00
C2814  C     0.69613   0.10720   0.94700   0.00000  Uiso   1.00
O2815  O     0.64315   0.10492   0.90222   0.00000  Uiso   1.00
O2816  O     0.73182   0.10492   0.97717   0.00000  Uiso   1.00
C2817  C     0.69613   0.23220   0.80740   0.00000  Uiso   1.00
C2818  C     0.67887   0.23220   0.82200   0.00000  Uiso   1.00
O2819  O     0.73185   0.22992   0.77723   0.00000  Uiso   1.00
O2820  O     0.64317   0.22992   0.85217   0.00000  Uiso   1.00
C2821  C     0.67887   0.01780   0.93240   0.00000  Uiso   1.00
C2822  C     0.69613   0.01780   0.94700   0.00000  Uiso   1.00
O2823  O     0.64315   0.02008   0.90222   0.00000  Uiso   1.00
O2824  O     0.73182   0.02008   0.97717   0.00000  Uiso   1.00
C2825  C     0.55387   0.10720   0.94260   0.00000  Uiso   1.00
C2826  C     0.57113   0.10720   0.92800   0.00000  Uiso   1.00
O2827  O     0.51815   0.10492   0.97277   0.00000  Uiso   1.00
O2828  O     0.60683   0.10492   0.89782   0.00000  Uiso   1.00
C2829  C     0.57113   0.14280   0.81760   0.00000  Uiso   1.00
C2830  C     0.55387   0.14280   0.80300   0.00000  Uiso   1.00
O2831  O     0.60685   0.14508   0.84777   0.00000  Uiso   1.00
O2832  O     0.51818   0.14508   0.77282   0.00000  Uiso   1.00
Al2833 Al    0.50000   0.00000   0.75000   0.00000  Uiso   1.00
Al2834 Al    0.62500   0.00000   0.87500   0.00000  Uiso   1.00
Al2835 Al    0.50000   0.12500   0.75000   0.00000  Uiso   1.00
Al2836 Al    0.62500   0.12500   0.87500   0.00000  Uiso   1.00
O2837  O     0.74932   0.06250   0.76490   0.00000  Uiso   1.00
C2838  C     0.54523   0.06250   0.94990   0.00000  Uiso   1.00
C2839  C     0.57975   0.06250   0.92072   0.00000  Uiso   1.00
C2840  C     0.52633   0.06250   0.96585   0.00000  Uiso   1.00
C2841  C     0.59865   0.06250   0.90475   0.00000  Uiso   1.00
O2842  O     0.62568   0.18750   0.88990   0.00000  Uiso   1.00
C2843  C     0.57977   0.18750   0.82490   0.00000  Uiso   1.00
C2844  C     0.54525   0.18750   0.79572   0.00000  Uiso   1.00
C2845  C     0.59868   0.18750   0.84085   0.00000  Uiso   1.00
C2846  C     0.52635   0.18750   0.77975   0.00000  Uiso   1.00
O2847  O     0.50068   0.18750   0.98509   0.00000  Uiso   1.00
C2848  C     0.70477   0.18750   0.80010   0.00000  Uiso   1.00
C2849  C     0.67025   0.18750   0.82928   0.00000  Uiso   1.00
C2850  C     0.72367   0.18750   0.78415   0.00000  Uiso   1.00
C2851  C     0.65135   0.18750   0.84525   0.00000  Uiso   1.00
O2852  O     0.62432   0.06250   0.86010   0.00000  Uiso   1.00
C2853  C     0.67022   0.06250   0.92510   0.00000  Uiso   1.00
C2854  C     0.70475   0.06250   0.95427   0.00000  Uiso   1.00
C2855  C     0.65133   0.06250   0.90915   0.00000  Uiso   1.00
C2856  C     0.72365   0.06250   0.97025   0.00000  Uiso   1.00
C2857  C     0.80387   0.01780   0.94260   0.00000  Uiso   1.00
C2858  C     0.82113   0.01780   0.92800   0.00000  Uiso   1.00
O2859  O     0.76815   0.02008   0.97277   0.00000  Uiso   1.00
O2860  O     0.85683   0.02008   0.89782   0.00000  Uiso   1.00
C2861  C     0.82113   0.23220   0.81760   0.00000  Uiso   1.00
C2862  C     0.80387   0.23220   0.80300   0.00000  Uiso   1.00
O2863  O     0.85685   0.22992   0.84777   0.00000  Uiso   1.00
O2864  O     0.76818   0.22992   0.77282   0.00000  Uiso   1.00
C2865  C     0.94613   0.14280   0.80740   0.00000  Uiso   1.00
C2866  C     0.92887   0.14280   0.82200   0.00000  Uiso   1.00
O2867  O     0.98185   0.14508   0.77723   0.00000  Uiso   1.00
O2868  O     0.89317   0.14508   0.85217   0.00000  Uiso   1.00
C2869  C     0.92887   0.10720   0.93240   0.00000  Uiso   1.00
C2870  C     0.94613   0.10720   0.94700   0.00000  Uiso   1.00
O2871  O     0.89315   0.10492   0.90222   0.00000  Uiso   1.00
O2872  O     0.98182   0.10492   0.97717   0.00000  Uiso   1.00
C2873  C     0.94613   0.23220   0.80740   0.00000  Uiso   1.00
C2874  C     0.92887   0.23220   0.82200   0.00000  Uiso   1.00
O2875  O     0.98185   0.22992   0.77723   0.00000  Uiso   1.00
O2876  O     0.89317   0.22992   0.85217   0.00000  Uiso   1.00
C2877  C     0.92887   0.01780   0.93240   0.00000  Uiso   1.00
C2878  C     0.94613   0.01780   0.94700   0.00000  Uiso   1.00
O2879  O     0.89315   0.02008   0.90222   0.00000  Uiso   1.00
O2880  O     0.98182   0.02008   0.97717   0.00000  Uiso   1.00
C2881  C     0.80387   0.10720   0.94260   0.00000  Uiso   1.00
C2882  C     0.82113   0.10720   0.92800   0.00000  Uiso   1.00
O2883  O     0.76815   0.10492   0.97277   0.00000  Uiso   1.00
O2884  O     0.85683   0.10492   0.89782   0.00000  Uiso   1.00
C2885  C     0.82113   0.14280   0.81760   0.00000  Uiso   1.00
C2886  C     0.80387   0.14280   0.80300   0.00000  Uiso   1.00
O2887  O     0.85685   0.14508   0.84777   0.00000  Uiso   1.00
O2888  O     0.76818   0.14508   0.77282   0.00000  Uiso   1.00
Al2889 Al    0.75000   0.00000   0.75000   0.00000  Uiso   1.00
Al2890 Al    0.87500   0.00000   0.87500   0.00000  Uiso   1.00
Al2891 Al    0.75000   0.12500   0.75000   0.00000  Uiso   1.00
Al2892 Al    0.87500   0.12500   0.87500   0.00000  Uiso   1.00
O2893  O     0.99932   0.06250   0.76490   0.00000  Uiso   1.00
C2894  C     0.79523   0.06250   0.94990   0.00000  Uiso   1.00
C2895  C     0.82975   0.06250   0.92072   0.00000  Uiso   1.00
C2896  C     0.77633   0.06250   0.96585   0.00000  Uiso   1.00
C2897  C     0.84865   0.06250   0.90475   0.00000  Uiso   1.00
O2898  O     0.87568   0.18750   0.88990   0.00000  Uiso   1.00
C2899  C     0.82977   0.18750   0.82490   0.00000  Uiso   1.00
C2900  C     0.79525   0.18750   0.79572   0.00000  Uiso   1.00
C2901  C     0.84867   0.18750   0.84085   0.00000  Uiso   1.00
C2902  C     0.77635   0.18750   0.77975   0.00000  Uiso   1.00
O2903  O     0.75068   0.18750   0.98509   0.00000  Uiso   1.00
C2904  C     0.95477   0.18750   0.80010   0.00000  Uiso   1.00
C2905  C     0.92025   0.18750   0.82928   0.00000  Uiso   1.00
C2906  C     0.97367   0.18750   0.78415   0.00000  Uiso   1.00
C2907  C     0.90135   0.18750   0.84525   0.00000  Uiso   1.00
O2908  O     0.87432   0.06250   0.86010   0.00000  Uiso   1.00
C2909  C     0.92022   0.06250   0.92510   0.00000  Uiso   1.00
C2910  C     0.95475   0.06250   0.95427   0.00000  Uiso   1.00
C2911  C     0.90133   0.06250   0.90915   0.00000  Uiso   1.00
C2912  C     0.97365   0.06250   0.97025   0.00000  Uiso   1.00
C2913  C     0.05387   0.26780   0.94260   0.00000  Uiso   1.00
C2914  C     0.07113   0.26780   0.92800   0.00000  Uiso   1.00
O2915  O     0.01815   0.27008   0.97277   0.00000  Uiso   1.00
O2916  O     0.10683   0.27008   0.89782   0.00000  Uiso   1.00
C2917  C     0.07113   0.48220   0.81760   0.00000  Uiso   1.00
C2918  C     0.05387   0.48220   0.80300   0.00000  Uiso   1.00
O2919  O     0.10685   0.47992   0.84777   0.00000  Uiso   1.00
O2920  O     0.01818   0.47992   0.77282   0.00000  Uiso   1.00
C2921  C     0.19613   0.39280   0.80740   0.00000  Uiso   1.00
C2922  C     0.17887   0.39280   0.82200   0.00000  Uiso   1.00
O2923  O     0.23185   0.39508   0.77723   0.00000  Uiso   1.00
O2924  O     0.14317   0.39508   0.85217   0.00000  Uiso   1.00
C2925  C     0.17887   0.35720   0.93240   0.00000  Uiso   1.00
C2926  C     0.19613   0.35720   0.94700   0.00000  Uiso   1.00
O2927  O     0.14315   0.35492   0.90222   0.00000  Uiso   1.00
O2928  O     0.23182   0.35492   0.97717   0.00000  Uiso   1.00
C2929  C     0.19613   0.48220   0.80740   0.00000  Uiso   1.00
C2930  C     0.17887   0.48220   0.82200   0.00000  Uiso   1.00
O2931  O     0.23185   0.47992   0.77723   0.00000  Uiso   1.00
O2932  O     0.14317   0.47992   0.85217   0.00000  Uiso   1.00
C2933  C     0.17887   0.26780   0.93240   0.00000  Uiso   1.00
C2934  C     0.19613   0.26780   0.94700   0.00000  Uiso   1.00
O2935  O     0.14315   0.27008   0.90222   0.00000  Uiso   1.00
O2936  O     0.23182   0.27008   0.97717   0.00000  Uiso   1.00
C2937  C     0.05387   0.35720   0.94260   0.00000  Uiso   1.00
C2938  C     0.07113   0.35720   0.92800   0.00000  Uiso   1.00
O2939  O     0.01815   0.35492   0.97277   0.00000  Uiso   1.00
O2940  O     0.10683   0.35492   0.89782   0.00000  Uiso   1.00
C2941  C     0.07113   0.39280   0.81760   0.00000  Uiso   1.00
C2942  C     0.05387   0.39280   0.80300   0.00000  Uiso   1.00
O2943  O     0.10685   0.39508   0.84777   0.00000  Uiso   1.00
O2944  O     0.01818   0.39508   0.77282   0.00000  Uiso   1.00
Al2945 Al    0.00000   0.25000   0.75000   0.00000  Uiso   1.00
Al2946 Al    0.12500   0.25000   0.87500   0.00000  Uiso   1.00
Al2947 Al    0.00000   0.37500   0.75000   0.00000  Uiso   1.00
Al2948 Al    0.12500   0.37500   0.87500   0.00000  Uiso   1.00
O2949  O     0.24932   0.31250   0.76490   0.00000  Uiso   1.00
C2950  C     0.04523   0.31250   0.94990   0.00000  Uiso   1.00
C2951  C     0.07975   0.31250   0.92072   0.00000  Uiso   1.00
C2952  C     0.02633   0.31250   0.96585   0.00000  Uiso   1.00
C2953  C     0.09865   0.31250   0.90475   0.00000  Uiso   1.00
O2954  O     0.12568   0.43750   0.88990   0.00000  Uiso   1.00
C2955  C     0.07977   0.43750   0.82490   0.00000  Uiso   1.00
C2956  C     0.04525   0.43750   0.79572   0.00000  Uiso   1.00
C2957  C     0.09868   0.43750   0.84085   0.00000  Uiso   1.00
C2958  C     0.02635   0.43750   0.77975   0.00000  Uiso   1.00
O2959  O     0.00068   0.43750   0.98509   0.00000  Uiso   1.00
C2960  C     0.20477   0.43750   0.80010   0.00000  Uiso   1.00
C2961  C     0.17025   0.43750   0.82928   0.00000  Uiso   1.00
C2962  C     0.22367   0.43750   0.78415   0.00000  Uiso   1.00
C2963  C     0.15135   0.43750   0.84525   0.00000  Uiso   1.00
O2964  O     0.12432   0.31250   0.86010   0.00000  Uiso   1.00
C2965  C     0.17022   0.31250   0.92510   0.00000  Uiso   1.00
C2966  C     0.20475   0.31250   0.95427   0.00000  Uiso   1.00
C2967  C     0.15133   0.31250   0.90915   0.00000  Uiso   1.00
C2968  C     0.22365   0.31250   0.97025   0.00000  Uiso   1.00
C2969  C     0.30387   0.26780   0.94260   0.00000  Uiso   1.00
C2970  C     0.32113   0.26780   0.92800   0.00000  Uiso   1.00
O2971  O     0.26815   0.27008   0.97277   0.00000  Uiso   1.00
O2972  O     0.35682   0.27008   0.89782   0.00000  Uiso   1.00
C2973  C     0.32113   0.48220   0.81760   0.00000  Uiso   1.00
C2974  C     0.30387   0.48220   0.80300   0.00000  Uiso   1.00
O2975  O     0.35685   0.47992   0.84777   0.00000  Uiso   1.00
O2976  O     0.26818   0.47992   0.77282   0.00000  Uiso   1.00
C2977  C     0.44613   0.39280   0.80740   0.00000  Uiso   1.00
C2978  C     0.42887   0.39280   0.82200   0.00000  Uiso   1.00
O2979  O     0.48185   0.39508   0.77723   0.00000  Uiso   1.00
O2980  O     0.39317   0.39508   0.85217   0.00000  Uiso   1.00
C2981  C     0.42887   0.35720   0.93240   0.00000  Uiso   1.00
C2982  C     0.44613   0.35720   0.94700   0.00000  Uiso   1.00
O2983  O     0.39315   0.35492   0.90222   0.00000  Uiso   1.00
O2984  O     0.48182   0.35492   0.97717   0.00000  Uiso   1.00
C2985  C     0.44613   0.48220   0.80740   0.00000  Uiso   1.00
C2986  C     0.42887   0.48220   0.82200   0.00000  Uiso   1.00
O2987  O     0.48185   0.47992   0.77723   0.00000  Uiso   1.00
O2988  O     0.39317   0.47992   0.85217   0.00000  Uiso   1.00
C2989  C     0.42887   0.26780   0.93240   0.00000  Uiso   1.00
C2990  C     0.44613   0.26780   0.94700   0.00000  Uiso   1.00
O2991  O     0.39315   0.27008   0.90222   0.00000  Uiso   1.00
O2992  O     0.48182   0.27008   0.97717   0.00000  Uiso   1.00
C2993  C     0.30387   0.35720   0.94260   0.00000  Uiso   1.00
C2994  C     0.32113   0.35720   0.92800   0.00000  Uiso   1.00
O2995  O     0.26815   0.35492   0.97277   0.00000  Uiso   1.00
O2996  O     0.35682   0.35492   0.89782   0.00000  Uiso   1.00
C2997  C     0.32113   0.39280   0.81760   0.00000  Uiso   1.00
C2998  C     0.30387   0.39280   0.80300   0.00000  Uiso   1.00
O2999  O     0.35685   0.39508   0.84777   0.00000  Uiso   1.00
O3000  O     0.26818   0.39508   0.77282   0.00000  Uiso   1.00
Al3001 Al    0.25000   0.25000   0.75000   0.00000  Uiso   1.00
Al3002 Al    0.37500   0.25000   0.87500   0.00000  Uiso   1.00
Al3003 Al    0.25000   0.37500   0.75000   0.00000  Uiso   1.00
Al3004 Al    0.37500   0.37500   0.87500   0.00000  Uiso   1.00
O3005  O     0.49932   0.31250   0.76490   0.00000  Uiso   1.00
C3006  C     0.29523   0.31250   0.94990   0.00000  Uiso   1.00
C3007  C     0.32975   0.31250   0.92072   0.00000  Uiso   1.00
C3008  C     0.27633   0.31250   0.96585   0.00000  Uiso   1.00
C3009  C     0.34865   0.31250   0.90475   0.00000  Uiso   1.00
O3010  O     0.37568   0.43750   0.88990   0.00000  Uiso   1.00
C3011  C     0.32977   0.43750   0.82490   0.00000  Uiso   1.00
C3012  C     0.29525   0.43750   0.79572   0.00000  Uiso   1.00
C3013  C     0.34868   0.43750   0.84085   0.00000  Uiso   1.00
C3014  C     0.27635   0.43750   0.77975   0.00000  Uiso   1.00
O3015  O     0.25068   0.43750   0.98509   0.00000  Uiso   1.00
C3016  C     0.45477   0.43750   0.80010   0.00000  Uiso   1.00
C3017  C     0.42025   0.43750   0.82928   0.00000  Uiso   1.00
C3018  C     0.47367   0.43750   0.78415   0.00000  Uiso   1.00
C3019  C     0.40135   0.43750   0.84525   0.00000  Uiso   1.00
O3020  O     0.37432   0.31250   0.86010   0.00000  Uiso   1.00
C3021  C     0.42022   0.31250   0.92510   0.00000  Uiso   1.00
C3022  C     0.45475   0.31250   0.95427   0.00000  Uiso   1.00
C3023  C     0.40133   0.31250   0.90915   0.00000  Uiso   1.00
C3024  C     0.47365   0.31250   0.97025   0.00000  Uiso   1.00
C3025  C     0.55387   0.26780   0.94260   0.00000  Uiso   1.00
C3026  C     0.57113   0.26780   0.92800   0.00000  Uiso   1.00
O3027  O     0.51815   0.27008   0.97277   0.00000  Uiso   1.00
O3028  O     0.60683   0.27008   0.89782   0.00000  Uiso   1.00
C3029  C     0.57113   0.48220   0.81760   0.00000  Uiso   1.00
C3030  C     0.55387   0.48220   0.80300   0.00000  Uiso   1.00
O3031  O     0.60685   0.47992   0.84777   0.00000  Uiso   1.00
O3032  O     0.51818   0.47992   0.77282   0.00000  Uiso   1.00
C3033  C     0.69613   0.39280   0.80740   0.00000  Uiso   1.00
C3034  C     0.67887   0.39280   0.82200   0.00000  Uiso   1.00
O3035  O     0.73185   0.39508   0.77723   0.00000  Uiso   1.00
O3036  O     0.64317   0.39508   0.85217   0.00000  Uiso   1.00
C3037  C     0.67887   0.35720   0.93240   0.00000  Uiso   1.00
C3038  C     0.69613   0.35720   0.94700   0.00000  Uiso   1.00
O3039  O     0.64315   0.35492   0.90222   0.00000  Uiso   1.00
O3040  O     0.73182   0.35492   0.97717   0.00000  Uiso   1.00
C3041  C     0.69613   0.48220   0.80740   0.00000  Uiso   1.00
C3042  C     0.67887   0.48220   0.82200   0.00000  Uiso   1.00
O3043  O     0.73185   0.47992   0.77723   0.00000  Uiso   1.00
O3044  O     0.64317   0.47992   0.85217   0.00000  Uiso   1.00
C3045  C     0.67887   0.26780   0.93240   0.00000  Uiso   1.00
C3046  C     0.69613   0.26780   0.94700   0.00000  Uiso   1.00
O3047  O     0.64315   0.27008   0.90222   0.00000  Uiso   1.00
O3048  O     0.73182   0.27008   0.97717   0.00000  Uiso   1.00
C3049  C     0.55387   0.35720   0.94260   0.00000  Uiso   1.00
C3050  C     0.57113   0.35720   0.92800   0.00000  Uiso   1.00
O3051  O     0.51815   0.35492   0.97277   0.00000  Uiso   1.00
O3052  O     0.60683   0.35492   0.89782   0.00000  Uiso   1.00
C3053  C     0.57113   0.39280   0.81760   0.00000  Uiso   1.00
C3054  C     0.55387   0.39280   0.80300   0.00000  Uiso   1.00
O3055  O     0.60685   0.39508   0.84777   0.00000  Uiso   1.00
O3056  O     0.51818   0.39508   0.77282   0.00000  Uiso   1.00
Al3057 Al    0.50000   0.25000   0.75000   0.00000  Uiso   1.00
Al3058 Al    0.62500   0.25000   0.87500   0.00000  Uiso   1.00
Al3059 Al    0.50000   0.37500   0.75000   0.00000  Uiso   1.00
Al3060 Al    0.62500   0.37500   0.87500   0.00000  Uiso   1.00
O3061  O     0.74932   0.31250   0.76490   0.00000  Uiso   1.00
C3062  C     0.54523   0.31250   0.94990   0.00000  Uiso   1.00
C3063  C     0.57975   0.31250   0.92072   0.00000  Uiso   1.00
C3064  C     0.52633   0.31250   0.96585   0.00000  Uiso   1.00
C3065  C     0.59865   0.31250   0.90475   0.00000  Uiso   1.00
O3066  O     0.62568   0.43750   0.88990   0.00000  Uiso   1.00
C3067  C     0.57977   0.43750   0.82490   0.00000  Uiso   1.00
C3068  C     0.54525   0.43750   0.79572   0.00000  Uiso   1.00
C3069  C     0.59868   0.43750   0.84085   0.00000  Uiso   1.00
C3070  C     0.52635   0.43750   0.77975   0.00000  Uiso   1.00
O3071  O     0.50068   0.43750   0.98509   0.00000  Uiso   1.00
C3072  C     0.70477   0.43750   0.80010   0.00000  Uiso   1.00
C3073  C     0.67025   0.43750   0.82928   0.00000  Uiso   1.00
C3074  C     0.72367   0.43750   0.78415   0.00000  Uiso   1.00
C3075  C     0.65135   0.43750   0.84525   0.00000  Uiso   1.00
O3076  O     0.62432   0.31250   0.86010   0.00000  Uiso   1.00
C3077  C     0.67022   0.31250   0.92510   0.00000  Uiso   1.00
C3078  C     0.70475   0.31250   0.95427   0.00000  Uiso   1.00
C3079  C     0.65133   0.31250   0.90915   0.00000  Uiso   1.00
C3080  C     0.72365   0.31250   0.97025   0.00000  Uiso   1.00
C3081  C     0.80387   0.26780   0.94260   0.00000  Uiso   1.00
C3082  C     0.82113   0.26780   0.92800   0.00000  Uiso   1.00
O3083  O     0.76815   0.27008   0.97277   0.00000  Uiso   1.00
O3084  O     0.85683   0.27008   0.89782   0.00000  Uiso   1.00
C3085  C     0.82113   0.48220   0.81760   0.00000  Uiso   1.00
C3086  C     0.80387   0.48220   0.80300   0.00000  Uiso   1.00
O3087  O     0.85685   0.47992   0.84777   0.00000  Uiso   1.00
O3088  O     0.76818   0.47992   0.77282   0.00000  Uiso   1.00
C3089  C     0.94613   0.39280   0.80740   0.00000  Uiso   1.00
C3090  C     0.92887   0.39280   0.82200   0.00000  Uiso   1.00
O3091  O     0.98185   0.39508   0.77723   0.00000  Uiso   1.00
O3092  O     0.89317   0.39508   0.85217   0.00000  Uiso   1.00
C3093  C     0.92887   0.35720   0.93240   0.00000  Uiso   1.00
C3094  C     0.94613   0.35720   0.94700   0.00000  Uiso   1.00
O3095  O     0.89315   0.35492   0.90222   0.00000  Uiso   1.00
O3096  O     0.98182   0.35492   0.97717   0.00000  Uiso   1.00
C3097  C     0.94613   0.48220   0.80740   0.00000  Uiso   1.00
C3098  C     0.92887   0.48220   0.82200   0.00000  Uiso   1.00
O3099  O     0.98185   0.47992   0.77723   0.00000  Uiso   1.00
O3100  O     0.89317   0.47992   0.85217   0.00000  Uiso   1.00
C3101  C     0.92887   0.26780   0.93240   0.00000  Uiso   1.00
C3102  C     0.94613   0.26780   0.94700   0.00000  Uiso   1.00
O3103  O     0.89315   0.27008   0.90222   0.00000  Uiso   1.00
O3104  O     0.98182   0.27008   0.97717   0.00000  Uiso   1.00
C3105  C     0.80387   0.35720   0.94260   0.00000  Uiso   1.00
C3106  C     0.82113   0.35720   0.92800   0.00000  Uiso   1.00
O3107  O     0.76815   0.35492   0.97277   0.00000  Uiso   1.00
O3108  O     0.85683   0.35492   0.89782   0.00000  Uiso   1.00
C3109  C     0.82113   0.39280   0.81760   0.00000  Uiso   1.00
C3110  C     0.80387   0.39280   0.80300   0.00000  Uiso   1.00
O3111  O     0.85685   0.39508   0.84777   0.00000  Uiso   1.00
O3112  O     0.76818   0.39508   0.77282   0.00000  Uiso   1.00
Al3113 Al    0.75000   0.25000   0.75000   0.00000  Uiso   1.00
Al3114 Al    0.87500   0.25000   0.87500   0.00000  Uiso   1.00
Al3115 Al    0.75000   0.37500   0.75000   0.00000  Uiso   1.00
Al3116 Al    0.87500   0.37500   0.87500   0.00000  Uiso   1.00
O3117  O     0.99932   0.31250   0.76490   0.00000  Uiso   1.00
C3118  C     0.79523   0.31250   0.94990   0.00000  Uiso   1.00
C3119  C     0.82975   0.31250   0.92072   0.00000  Uiso   1.00
C3120  C     0.77633   0.31250   0.96585   0.00000  Uiso   1.00
C3121  C     0.84865   0.31250   0.90475   0.00000  Uiso   1.00
O3122  O     0.87568   0.43750   0.88990   0.00000  Uiso   1.00
C3123  C     0.82977   0.43750   0.82490   0.00000  Uiso   1.00
C3124  C     0.79525   0.43750   0.79572   0.00000  Uiso   1.00
C3125  C     0.84867   0.43750   0.84085   0.00000  Uiso   1.00
C3126  C     0.77635   0.43750   0.77975   0.00000  Uiso   1.00
O3127  O     0.75068   0.43750   0.98509   0.00000  Uiso   1.00
C3128  C     0.95477   0.43750   0.80010   0.00000  Uiso   1.00
C3129  C     0.92025   0.43750   0.82928   0.00000  Uiso   1.00
C3130  C     0.97367   0.43750   0.78415   0.00000  Uiso   1.00
C3131  C     0.90135   0.43750   0.84525   0.00000  Uiso   1.00
O3132  O     0.87432   0.31250   0.86010   0.00000  Uiso   1.00
C3133  C     0.92022   0.31250   0.92510   0.00000  Uiso   1.00
C3134  C     0.95475   0.31250   0.95427   0.00000  Uiso   1.00
C3135  C     0.90133   0.31250   0.90915   0.00000  Uiso   1.00
C3136  C     0.97365   0.31250   0.97025   0.00000  Uiso   1.00
C3137  C     0.05387   0.51780   0.94260   0.00000  Uiso   1.00
C3138  C     0.07113   0.51780   0.92800   0.00000  Uiso   1.00
O3139  O     0.01815   0.52008   0.97277   0.00000  Uiso   1.00
O3140  O     0.10683   0.52008   0.89782   0.00000  Uiso   1.00
C3141  C     0.07113   0.73220   0.81760   0.00000  Uiso   1.00
C3142  C     0.05387   0.73220   0.80300   0.00000  Uiso   1.00
O3143  O     0.10685   0.72992   0.84777   0.00000  Uiso   1.00
O3144  O     0.01818   0.72992   0.77282   0.00000  Uiso   1.00
C3145  C     0.19613   0.64280   0.80740   0.00000  Uiso   1.00
C3146  C     0.17887   0.64280   0.82200   0.00000  Uiso   1.00
O3147  O     0.23185   0.64508   0.77723   0.00000  Uiso   1.00
O3148  O     0.14317   0.64508   0.85217   0.00000  Uiso   1.00
C3149  C     0.17887   0.60720   0.93240   0.00000  Uiso   1.00
C3150  C     0.19613   0.60720   0.94700   0.00000  Uiso   1.00
O3151  O     0.14315   0.60492   0.90222   0.00000  Uiso   1.00
O3152  O     0.23182   0.60492   0.97717   0.00000  Uiso   1.00
C3153  C     0.19613   0.73220   0.80740   0.00000  Uiso   1.00
C3154  C     0.17887   0.73220   0.82200   0.00000  Uiso   1.00
O3155  O     0.23185   0.72992   0.77723   0.00000  Uiso   1.00
O3156  O     0.14317   0.72992   0.85217   0.00000  Uiso   1.00
C3157  C     0.17887   0.51780   0.93240   0.00000  Uiso   1.00
C3158  C     0.19613   0.51780   0.94700   0.00000  Uiso   1.00
O3159  O     0.14315   0.52008   0.90222   0.00000  Uiso   1.00
O3160  O     0.23182   0.52008   0.97717   0.00000  Uiso   1.00
C3161  C     0.05387   0.60720   0.94260   0.00000  Uiso   1.00
C3162  C     0.07113   0.60720   0.92800   0.00000  Uiso   1.00
O3163  O     0.01815   0.60492   0.97277   0.00000  Uiso   1.00
O3164  O     0.10683   0.60492   0.89782   0.00000  Uiso   1.00
C3165  C     0.07113   0.64280   0.81760   0.00000  Uiso   1.00
C3166  C     0.05387   0.64280   0.80300   0.00000  Uiso   1.00
O3167  O     0.10685   0.64508   0.84777   0.00000  Uiso   1.00
O3168  O     0.01818   0.64508   0.77282   0.00000  Uiso   1.00
Al3169 Al    0.00000   0.50000   0.75000   0.00000  Uiso   1.00
Al3170 Al    0.12500   0.50000   0.87500   0.00000  Uiso   1.00
Al3171 Al    0.00000   0.62500   0.75000   0.00000  Uiso   1.00
Al3172 Al    0.12500   0.62500   0.87500   0.00000  Uiso   1.00
O3173  O     0.24932   0.56250   0.76490   0.00000  Uiso   1.00
C3174  C     0.04523   0.56250   0.94990   0.00000  Uiso   1.00
C3175  C     0.07975   0.56250   0.92072   0.00000  Uiso   1.00
C3176  C     0.02633   0.56250   0.96585   0.00000  Uiso   1.00
C3177  C     0.09865   0.56250   0.90475   0.00000  Uiso   1.00
O3178  O     0.12568   0.68750   0.88990   0.00000  Uiso   1.00
C3179  C     0.07977   0.68750   0.82490   0.00000  Uiso   1.00
C3180  C     0.04525   0.68750   0.79572   0.00000  Uiso   1.00
C3181  C     0.09868   0.68750   0.84085   0.00000  Uiso   1.00
C3182  C     0.02635   0.68750   0.77975   0.00000  Uiso   1.00
O3183  O     0.00068   0.68750   0.98509   0.00000  Uiso   1.00
C3184  C     0.20477   0.68750   0.80010   0.00000  Uiso   1.00
C3185  C     0.17025   0.68750   0.82928   0.00000  Uiso   1.00
C3186  C     0.22367   0.68750   0.78415   0.00000  Uiso   1.00
C3187  C     0.15135   0.68750   0.84525   0.00000  Uiso   1.00
O3188  O     0.12432   0.56250   0.86010   0.00000  Uiso   1.00
C3189  C     0.17022   0.56250   0.92510   0.00000  Uiso   1.00
C3190  C     0.20475   0.56250   0.95427   0.00000  Uiso   1.00
C3191  C     0.15133   0.56250   0.90915   0.00000  Uiso   1.00
C3192  C     0.22365   0.56250   0.97025   0.00000  Uiso   1.00
C3193  C     0.30387   0.51780   0.94260   0.00000  Uiso   1.00
C3194  C     0.32113   0.51780   0.92800   0.00000  Uiso   1.00
O3195  O     0.26815   0.52008   0.97277   0.00000  Uiso   1.00
O3196  O     0.35682   0.52008   0.89782   0.00000  Uiso   1.00
C3197  C     0.32113   0.73220   0.81760   0.00000  Uiso   1.00
C3198  C     0.30387   0.73220   0.80300   0.00000  Uiso   1.00
O3199  O     0.35685   0.72992   0.84777   0.00000  Uiso   1.00
O3200  O     0.26818   0.72992   0.77282   0.00000  Uiso   1.00
C3201  C     0.44613   0.64280   0.80740   0.00000  Uiso   1.00
C3202  C     0.42887   0.64280   0.82200   0.00000  Uiso   1.00
O3203  O     0.48185   0.64508   0.77723   0.00000  Uiso   1.00
O3204  O     0.39317   0.64508   0.85217   0.00000  Uiso   1.00
C3205  C     0.42887   0.60720   0.93240   0.00000  Uiso   1.00
C3206  C     0.44613   0.60720   0.94700   0.00000  Uiso   1.00
O3207  O     0.39315   0.60492   0.90222   0.00000  Uiso   1.00
O3208  O     0.48182   0.60492   0.97717   0.00000  Uiso   1.00
C3209  C     0.44613   0.73220   0.80740   0.00000  Uiso   1.00
C3210  C     0.42887   0.73220   0.82200   0.00000  Uiso   1.00
O3211  O     0.48185   0.72992   0.77723   0.00000  Uiso   1.00
O3212  O     0.39317   0.72992   0.85217   0.00000  Uiso   1.00
C3213  C     0.42887   0.51780   0.93240   0.00000  Uiso   1.00
C3214  C     0.44613   0.51780   0.94700   0.00000  Uiso   1.00
O3215  O     0.39315   0.52008   0.90222   0.00000  Uiso   1.00
O3216  O     0.48182   0.52008   0.97717   0.00000  Uiso   1.00
C3217  C     0.30387   0.60720   0.94260   0.00000  Uiso   1.00
C3218  C     0.32113   0.60720   0.92800   0.00000  Uiso   1.00
O3219  O     0.26815   0.60492   0.97277   0.00000  Uiso   1.00
O3220  O     0.35682   0.60492   0.89782   0.00000  Uiso   1.00
C3221  C     0.32113   0.64280   0.81760   0.00000  Uiso   1.00
C3222  C     0.30387   0.64280   0.80300   0.00000  Uiso   1.00
O3223  O     0.35685   0.64508   0.84777   0.00000  Uiso   1.00
O3224  O     0.26818   0.64508   0.77282   0.00000  Uiso   1.00
Al3225 Al    0.25000   0.50000   0.75000   0.00000  Uiso   1.00
Al3226 Al    0.37500   0.50000   0.87500   0.00000  Uiso   1.00
Al3227 Al    0.25000   0.62500   0.75000   0.00000  Uiso   1.00
Al3228 Al    0.37500   0.62500   0.87500   0.00000  Uiso   1.00
O3229  O     0.49932   0.56250   0.76490   0.00000  Uiso   1.00
C3230  C     0.29523   0.56250   0.94990   0.00000  Uiso   1.00
C3231  C     0.32975   0.56250   0.92072   0.00000  Uiso   1.00
C3232  C     0.27633   0.56250   0.96585   0.00000  Uiso   1.00
C3233  C     0.34865   0.56250   0.90475   0.00000  Uiso   1.00
O3234  O     0.37568   0.68750   0.88990   0.00000  Uiso   1.00
C3235  C     0.32977   0.68750   0.82490   0.00000  Uiso   1.00
C3236  C     0.29525   0.68750   0.79572   0.00000  Uiso   1.00
C3237  C     0.34868   0.68750   0.84085   0.00000  Uiso   1.00
C3238  C     0.27635   0.68750   0.77975   0.00000  Uiso   1.00
O3239  O     0.25068   0.68750   0.98509   0.00000  Uiso   1.00
C3240  C     0.45477   0.68750   0.80010   0.00000  Uiso   1.00
C3241  C     0.42025   0.68750   0.82928   0.00000  Uiso   1.00
C3242  C     0.47367   0.68750   0.78415   0.00000  Uiso   1.00
C3243  C     0.40135   0.68750   0.84525   0.00000  Uiso   1.00
O3244  O     0.37432   0.56250   0.86010   0.00000  Uiso   1.00
C3245  C     0.42022   0.56250   0.92510   0.00000  Uiso   1.00
C3246  C     0.45475   0.56250   0.95427   0.00000  Uiso   1.00
C3247  C     0.40133   0.56250   0.90915   0.00000  Uiso   1.00
C3248  C     0.47365   0.56250   0.97025   0.00000  Uiso   1.00
C3249  C     0.55387   0.51780   0.94260   0.00000  Uiso   1.00
C3250  C     0.57113   0.51780   0.92800   0.00000  Uiso   1.00
O3251  O     0.51815   0.52008   0.97277   0.00000  Uiso   1.00
O3252  O     0.60683   0.52008   0.89782   0.00000  Uiso   1.00
C3253  C     0.57113   0.73220   0.81760   0.00000  Uiso   1.00
C3254  C     0.55387   0.73220   0.80300   0.00000  Uiso   1.00
O3255  O     0.60685   0.72992   0.84777   0.00000  Uiso   1.00
O3256  O     0.51818   0.72992   0.77282   0.00000  Uiso   1.00
C3257  C     0.69613   0.64280   0.80740   0.00000  Uiso   1.00
C3258  C     0.67887   0.64280   0.82200   0.00000  Uiso   1.00
O3259  O     0.73185   0.64508   0.77723   0.00000  Uiso   1.00
O3260  O     0.64317   0.64508   0.85217   0.00000  Uiso   1.00
C3261  C     0.67887   0.60720   0.93240   0.00000  Uiso   1.00
C3262  C     0.69613   0.60720   0.94700   0.00000  Uiso   1.00
O3263  O     0.64315   0.60492   0.90222   0.00000  Uiso   1.00
O3264  O     0.73182   0.60492   0.97717   0.00000  Uiso   1.00
C3265  C     0.69613   0.73220   0.80740   0.00000  Uiso   1.00
C3266  C     0.67887   0.73220   0.82200   0.00000  Uiso   1.00
O3267  O     0.73185   0.72992   0.77723   0.00000  Uiso   1.00
O3268  O     0.64317   0.72992   0.85217   0.00000  Uiso   1.00
C3269  C     0.67887   0.51780   0.93240   0.00000  Uiso   1.00
C3270  C     0.69613   0.51780   0.94700   0.00000  Uiso   1.00
O3271  O     0.64315   0.52008   0.90222   0.00000  Uiso   1.00
O3272  O     0.73182   0.52008   0.97717   0.00000  Uiso   1.00
C3273  C     0.55387   0.60720   0.94260   0.00000  Uiso   1.00
C3274  C     0.57113   0.60720   0.92800   0.00000  Uiso   1.00
O3275  O     0.51815   0.60492   0.97277   0.00000  Uiso   1.00
O3276  O     0.60683   0.60492   0.89782   0.00000  Uiso   1.00
C3277  C     0.57113   0.64280   0.81760   0.00000  Uiso   1.00
C3278  C     0.55387   0.64280   0.80300   0.00000  Uiso   1.00
O3279  O     0.60685   0.64508   0.84777   0.00000  Uiso   1.00
O3280  O     0.51818   0.64508   0.77282   0.00000  Uiso   1.00
Al3281 Al    0.50000   0.50000   0.75000   0.00000  Uiso   1.00
Al3282 Al    0.62500   0.50000   0.87500   0.00000  Uiso   1.00
Al3283 Al    0.50000   0.62500   0.75000   0.00000  Uiso   1.00
Al3284 Al    0.62500   0.62500   0.87500   0.00000  Uiso   1.00
O3285  O     0.74932   0.56250   0.76490   0.00000  Uiso   1.00
C3286  C     0.54523   0.56250   0.94990   0.00000  Uiso   1.00
C3287  C     0.57975   0.56250   0.92072   0.00000  Uiso   1.00
C3288  C     0.52633   0.56250   0.96585   0.00000  Uiso   1.00
C3289  C     0.59865   0.56250   0.90475   0.00000  Uiso   1.00
O3290  O     0.62568   0.68750   0.88990   0.00000  Uiso   1.00
C3291  C     0.57977   0.68750   0.82490   0.00000  Uiso   1.00
C3292  C     0.54525   0.68750   0.79572   0.00000  Uiso   1.00
C3293  C     0.59868   0.68750   0.84085   0.00000  Uiso   1.00
C3294  C     0.52635   0.68750   0.77975   0.00000  Uiso   1.00
O3295  O     0.50068   0.68750   0.98509   0.00000  Uiso   1.00
C3296  C     0.70477   0.68750   0.80010   0.00000  Uiso   1.00
C3297  C     0.67025   0.68750   0.82928   0.00000  Uiso   1.00
C3298  C     0.72367   0.68750   0.78415   0.00000  Uiso   1.00
C3299  C     0.65135   0.68750   0.84525   0.00000  Uiso   1.00
O3300  O     0.62432   0.56250   0.86010   0.00000  Uiso   1.00
C3301  C     0.67022   0.56250   0.92510   0.00000  Uiso   1.00
C3302  C     0.70475   0.56250   0.95427   0.00000  Uiso   1.00
C3303  C     0.65133   0.56250   0.90915   0.00000  Uiso   1.00
C3304  C     0.72365   0.56250   0.97025   0.00000  Uiso   1.00
C3305  C     0.80387   0.51780   0.94260   0.00000  Uiso   1.00
C3306  C     0.82113   0.51780   0.92800   0.00000  Uiso   1.00
O3307  O     0.76815   0.52008   0.97277   0.00000  Uiso   1.00
O3308  O     0.85683   0.52008   0.89782   0.00000  Uiso   1.00
C3309  C     0.82113   0.73220   0.81760   0.00000  Uiso   1.00
C3310  C     0.80387   0.73220   0.80300   0.00000  Uiso   1.00
O3311  O     0.85685   0.72992   0.84777   0.00000  Uiso   1.00
O3312  O     0.76818   0.72992   0.77282   0.00000  Uiso   1.00
C3313  C     0.94613   0.64280   0.80740   0.00000  Uiso   1.00
C3314  C     0.92887   0.64280   0.82200   0.00000  Uiso   1.00
O3315  O     0.98185   0.64508   0.77723   0.00000  Uiso   1.00
O3316  O     0.89317   0.64508   0.85217   0.00000  Uiso   1.00
C3317  C     0.92887   0.60720   0.93240   0.00000  Uiso   1.00
C3318  C     0.94613   0.60720   0.94700   0.00000  Uiso   1.00
O3319  O     0.89315   0.60492   0.90222   0.00000  Uiso   1.00
O3320  O     0.98182   0.60492   0.97717   0.00000  Uiso   1.00
C3321  C     0.94613   0.73220   0.80740   0.00000  Uiso   1.00
C3322  C     0.92887   0.73220   0.82200   0.00000  Uiso   1.00
O3323  O     0.98185   0.72992   0.77723   0.00000  Uiso   1.00
O3324  O     0.89317   0.72992   0.85217   0.00000  Uiso   1.00
C3325  C     0.92887   0.51780   0.93240   0.00000  Uiso   1.00
C3326  C     0.94613   0.51780   0.94700   0.00000  Uiso   1.00
O3327  O     0.89315   0.52008   0.90222   0.00000  Uiso   1.00
O3328  O     0.98182   0.52008   0.97717   0.00000  Uiso   1.00
C3329  C     0.80387   0.60720   0.94260   0.00000  Uiso   1.00
C3330  C     0.82113   0.60720   0.92800   0.00000  Uiso   1.00
O3331  O     0.76815   0.60492   0.97277   0.00000  Uiso   1.00
O3332  O     0.85683   0.60492   0.89782   0.00000  Uiso   1.00
C3333  C     0.82113   0.64280   0.81760   0.00000  Uiso   1.00
C3334  C     0.80387   0.64280   0.80300   0.00000  Uiso   1.00
O3335  O     0.85685   0.64508   0.84777   0.00000  Uiso   1.00
O3336  O     0.76818   0.64508   0.77282   0.00000  Uiso   1.00
Al3337 Al    0.75000   0.50000   0.75000   0.00000  Uiso   1.00
Al3338 Al    0.87500   0.50000   0.87500   0.00000  Uiso   1.00
Al3339 Al    0.75000   0.62500   0.75000   0.00000  Uiso   1.00
Al3340 Al    0.87500   0.62500   0.87500   0.00000  Uiso   1.00
O3341  O     0.99932   0.56250   0.76490   0.00000  Uiso   1.00
C3342  C     0.79523   0.56250   0.94990   0.00000  Uiso   1.00
C3343  C     0.82975   0.56250   0.92072   0.00000  Uiso   1.00
C3344  C     0.77633   0.56250   0.96585   0.00000  Uiso   1.00
C3345  C     0.84865   0.56250   0.90475   0.00000  Uiso   1.00
O3346  O     0.87568   0.68750   0.88990   0.00000  Uiso   1.00
C3347  C     0.82977   0.68750   0.82490   0.00000  Uiso   1.00
C3348  C     0.79525   0.68750   0.79572   0.00000  Uiso   1.00
C3349  C     0.84867   0.68750   0.84085   0.00000  Uiso   1.00
C3350  C     0.77635   0.68750   0.77975   0.00000  Uiso   1.00
O3351  O     0.75068   0.68750   0.98509   0.00000  Uiso   1.00
C3352  C     0.95477   0.68750   0.80010   0.00000  Uiso   1.00
C3353  C     0.92025   0.68750   0.82928   0.00000  Uiso   1.00
C3354  C     0.97367   0.68750   0.78415   0.00000  Uiso   1.00
C3355  C     0.90135   0.68750   0.84525   0.00000  Uiso   1.00
O3356  O     0.87432   0.56250   0.86010   0.00000  Uiso   1.00
C3357  C     0.92022   0.56250   0.92510   0.00000  Uiso   1.00
C3358  C     0.95475   0.56250   0.95427   0.00000  Uiso   1.00
C3359  C     0.90133   0.56250   0.90915   0.00000  Uiso   1.00
C3360  C     0.97365   0.56250   0.97025   0.00000  Uiso   1.00
C3361  C     0.05387   0.76780   0.94260   0.00000  Uiso   1.00
C3362  C     0.07113   0.76780   0.92800   0.00000  Uiso   1.00
O3363  O     0.01815   0.77008   0.97277   0.00000  Uiso   1.00
O3364  O     0.10683   0.77008   0.89782   0.00000  Uiso   1.00
C3365  C     0.07113   0.98220   0.81760   0.00000  Uiso   1.00
C3366  C     0.05387   0.98220   0.80300   0.00000  Uiso   1.00
O3367  O     0.10685   0.97992   0.84777   0.00000  Uiso   1.00
O3368  O     0.01818   0.97992   0.77282   0.00000  Uiso   1.00
C3369  C     0.19613   0.89280   0.80740   0.00000  Uiso   1.00
C3370  C     0.17887   0.89280   0.82200   0.00000  Uiso   1.00
O3371  O     0.23185   0.89508   0.77723   0.00000  Uiso   1.00
O3372  O     0.14317   0.89508   0.85217   0.00000  Uiso   1.00
C3373  C     0.17887   0.85720   0.93240   0.00000  Uiso   1.00
C3374  C     0.19613   0.85720   0.94700   0.00000  Uiso   1.00
O3375  O     0.14315   0.85492   0.90222   0.00000  Uiso   1.00
O3376  O     0.23182   0.85492   0.97717   0.00000  Uiso   1.00
C3377  C     0.19613   0.98220   0.80740   0.00000  Uiso   1.00
C3378  C     0.17887   0.98220   0.82200   0.00000  Uiso   1.00
O3379  O     0.23185   0.97992   0.77723   0.00000  Uiso   1.00
O3380  O     0.14317   0.97992   0.85217   0.00000  Uiso   1.00
C3381  C     0.17887   0.76780   0.93240   0.00000  Uiso   1.00
C3382  C     0.19613   0.76780   0.94700   0.00000  Uiso   1.00
O3383  O     0.14315   0.77008   0.90222   0.00000  Uiso   1.00
O3384  O     0.23182   0.77008   0.97717   0.00000  Uiso   1.00
C3385  C     0.05387   0.85720   0.94260   0.00000  Uiso   1.00
C3386  C     0.07113   0.85720   0.92800   0.00000  Uiso   1.00
O3387  O     0.01815   0.85492   0.97277   0.00000  Uiso   1.00
O3388  O     0.10683   0.85492   0.89782   0.00000  Uiso   1.00
C3389  C     0.07113   0.89280   0.81760   0.00000  Uiso   1.00
C3390  C     0.05387   0.89280   0.80300   0.00000  Uiso   1.00
O3391  O     0.10685   0.89508   0.84777   0.00000  Uiso   1.00
O3392  O     0.01818   0.89508   0.77282   0.00000  Uiso   1.00
Al3393 Al    0.00000   0.75000   0.75000   0.00000  Uiso   1.00
Al3394 Al    0.12500   0.75000   0.87500   0.00000  Uiso   1.00
Al3395 Al    0.00000   0.87500   0.75000   0.00000  Uiso   1.00
Al3396 Al    0.12500   0.87500   0.87500   0.00000  Uiso   1.00
O3397  O     0.24932   0.81250   0.76490   0.00000  Uiso   1.00
C3398  C     0.04523   0.81250   0.94990   0.00000  Uiso   1.00
C3399  C     0.07975   0.81250   0.92072   0.00000  Uiso   1.00
C3400  C     0.02633   0.81250   0.96585   0.00000  Uiso   1.00
C3401  C     0.09865   0.81250   0.90475   0.00000  Uiso   1.00
O3402  O     0.12568   0.93750   0.88990   0.00000  Uiso   1.00
C3403  C     0.07977   0.93750   0.82490   0.00000  Uiso   1.00
C3404  C     0.04525   0.93750   0.79572   0.00000  Uiso   1.00
C3405  C     0.09868   0.93750   0.84085   0.00000  Uiso   1.00
C3406  C     0.02635   0.93750   0.77975   0.00000  Uiso   1.00
O3407  O     0.00068   0.93750   0.98509   0.00000  Uiso   1.00
C3408  C     0.20477   0.93750   0.80010   0.00000  Uiso   1.00
C3409  C     0.17025   0.93750   0.82928   0.00000  Uiso   1.00
C3410  C     0.22367   0.93750   0.78415   0.00000  Uiso   1.00
C3411  C     0.15135   0.93750   0.84525   0.00000  Uiso   1.00
O3412  O     0.12432   0.81250   0.86010   0.00000  Uiso   1.00
C3413  C     0.17022   0.81250   0.92510   0.00000  Uiso   1.00
C3414  C     0.20475   0.81250   0.95427   0.00000  Uiso   1.00
C3415  C     0.15133   0.81250   0.90915   0.00000  Uiso   1.00
C3416  C     0.22365   0.81250   0.97025   0.00000  Uiso   1.00
C3417  C     0.30387   0.76780   0.94260   0.00000  Uiso   1.00
C3418  C     0.32113   0.76780   0.92800   0.00000  Uiso   1.00
O3419  O     0.26815   0.77008   0.97277   0.00000  Uiso   1.00
O3420  O     0.35682   0.77008   0.89782   0.00000  Uiso   1.00
C3421  C     0.32113   0.98220   0.81760   0.00000  Uiso   1.00
C3422  C     0.30387   0.98220   0.80300   0.00000  Uiso   1.00
O3423  O     0.35685   0.97992   0.84777   0.00000  Uiso   1.00
O3424  O     0.26818   0.97992   0.77282   0.00000  Uiso   1.00
C3425  C     0.44613   0.89280   0.80740   0.00000  Uiso   1.00
C3426  C     0.42887   0.89280   0.82200   0.00000  Uiso   1.00
O3427  O     0.48185   0.89508   0.77723   0.00000  Uiso   1.00
O3428  O     0.39317   0.89508   0.85217   0.00000  Uiso   1.00
C3429  C     0.42887   0.85720   0.93240   0.00000  Uiso   1.00
C3430  C     0.44613   0.85720   0.94700   0.00000  Uiso   1.00
O3431  O     0.39315   0.85492   0.90222   0.00000  Uiso   1.00
O3432  O     0.48182   0.85492   0.97717   0.00000  Uiso   1.00
C3433  C     0.44613   0.98220   0.80740   0.00000  Uiso   1.00
C3434  C     0.42887   0.98220   0.82200   0.00000  Uiso   1.00
O3435  O     0.48185   0.97992   0.77723   0.00000  Uiso   1.00
O3436  O     0.39317   0.97992   0.85217   0.00000  Uiso   1.00
C3437  C     0.42887   0.76780   0.93240   0.00000  Uiso   1.00
C3438  C     0.44613   0.76780   0.94700   0.00000  Uiso   1.00
O3439  O     0.39315   0.77008   0.90222   0.00000  Uiso   1.00
O3440  O     0.48182   0.77008   0.97717   0.00000  Uiso   1.00
C3441  C     0.30387   0.85720   0.94260   0.00000  Uiso   1.00
C3442  C     0.32113   0.85720   0.92800   0.00000  Uiso   1.00
O3443  O     0.26815   0.85492   0.97277   0.00000  Uiso   1.00
O3444  O     0.35682   0.85492   0.89782   0.00000  Uiso   1.00
C3445  C     0.32113   0.89280   0.81760   0.00000  Uiso   1.00
C3446  C     0.30387   0.89280   0.80300   0.00000  Uiso   1.00
O3447  O     0.35685   0.89508   0.84777   0.00000  Uiso   1.00
O3448  O     0.26818   0.89508   0.77282   0.00000  Uiso   1.00
Al3449 Al    0.25000   0.75000   0.75000   0.00000  Uiso   1.00
Al3450 Al    0.37500   0.75000   0.87500   0.00000  Uiso   1.00
Al3451 Al    0.25000   0.87500   0.75000   0.00000  Uiso   1.00
Al3452 Al    0.37500   0.87500   0.87500   0.00000  Uiso   1.00
O3453  O     0.49932   0.81250   0.76490   0.00000  Uiso   1.00
C3454  C     0.29523   0.81250   0.94990   0.00000  Uiso   1.00
C3455  C     0.32975   0.81250   0.92072   0.00000  Uiso   1.00
C3456  C     0.27633   0.81250   0.96585   0.00000  Uiso   1.00
C3457  C     0.34865   0.81250   0.90475   0.00000  Uiso   1.00
O3458  O     0.37568   0.93750   0.88990   0.00000  Uiso   1.00
C3459  C     0.32977   0.93750   0.82490   0.00000  Uiso   1.00
C3460  C     0.29525   0.93750   0.79572   0.00000  Uiso   1.00
C3461  C     0.34868   0.93750   0.84085   0.00000  Uiso   1.00
C3462  C     0.27635   0.93750   0.77975   0.00000  Uiso   1.00
O3463  O     0.25068   0.93750   0.98509   0.00000  Uiso   1.00
C3464  C     0.45477   0.93750   0.80010   0.00000  Uiso   1.00
C3465  C     0.42025   0.93750   0.82928   0.00000  Uiso   1.00
C3466  C     0.47367   0.93750   0.78415   0.00000  Uiso   1.00
C3467  C     0.40135   0.93750   0.84525   0.00000  Uiso   1.00
O3468  O     0.37432   0.81250   0.86010   0.00000  Uiso   1.00
C3469  C     0.42022   0.81250   0.92510   0.00000  Uiso   1.00
C3470  C     0.45475   0.81250   0.95427   0.00000  Uiso   1.00
C3471  C     0.40133   0.81250   0.90915   0.00000  Uiso   1.00
C3472  C     0.47365   0.81250   0.97025   0.00000  Uiso   1.00
C3473  C     0.55387   0.76780   0.94260   0.00000  Uiso   1.00
C3474  C     0.57113   0.76780   0.92800   0.00000  Uiso   1.00
O3475  O     0.51815   0.77008   0.97277   0.00000  Uiso   1.00
O3476  O     0.60683   0.77008   0.89782   0.00000  Uiso   1.00
C3477  C     0.57113   0.98220   0.81760   0.00000  Uiso   1.00
C3478  C     0.55387   0.98220   0.80300   0.00000  Uiso   1.00
O3479  O     0.60685   0.97992   0.84777   0.00000  Uiso   1.00
O3480  O     0.51818   0.97992   0.77282   0.00000  Uiso   1.00
C3481  C     0.69613   0.89280   0.80740   0.00000  Uiso   1.00
C3482  C     0.67887   0.89280   0.82200   0.00000  Uiso   1.00
O3483  O     0.73185   0.89508   0.77723   0.00000  Uiso   1.00
O3484  O     0.64317   0.89508   0.85217   0.00000  Uiso   1.00
C3485  C     0.67887   0.85720   0.93240   0.00000  Uiso   1.00
C3486  C     0.69613   0.85720   0.94700   0.00000  Uiso   1.00
O3487  O     0.64315   0.85492   0.90222   0.00000  Uiso   1.00
O3488  O     0.73182   0.85492   0.97717   0.00000  Uiso   1.00
C3489  C     0.69613   0.98220   0.80740   0.00000  Uiso   1.00
C3490  C     0.67887   0.98220   0.82200   0.00000  Uiso   1.00
O3491  O     0.73185   0.97992   0.77723   0.00000  Uiso   1.00
O3492  O     0.64317   0.97992   0.85217   0.00000  Uiso   1.00
C3493  C     0.67887   0.76780   0.93240   0.00000  Uiso   1.00
C3494  C     0.69613   0.76780   0.94700   0.00000  Uiso   1.00
O3495  O     0.64315   0.77008   0.90222   0.00000  Uiso   1.00
O3496  O     0.73182   0.77008   0.97717   0.00000  Uiso   1.00
C3497  C     0.55387   0.85720   0.94260   0.00000  Uiso   1.00
C3498  C     0.57113   0.85720   0.92800   0.00000  Uiso   1.00
O3499  O     0.51815   0.85492   0.97277   0.00000  Uiso   1.00
O3500  O     0.60683   0.85492   0.89782   0.00000  Uiso   1.00
C3501  C     0.57113   0.89280   0.81760   0.00000  Uiso   1.00
C3502  C     0.55387   0.89280   0.80300   0.00000  Uiso   1.00
O3503  O     0.60685   0.89508   0.84777   0.00000  Uiso   1.00
O3504  O     0.51818   0.89508   0.77282   0.00000  Uiso   1.00
Al3505 Al    0.50000   0.75000   0.75000   0.00000  Uiso   1.00
Al3506 Al    0.62500   0.75000   0.87500   0.00000  Uiso   1.00
Al3507 Al    0.50000   0.87500   0.75000   0.00000  Uiso   1.00
Al3508 Al    0.62500   0.87500   0.87500   0.00000  Uiso   1.00
O3509  O     0.74932   0.81250   0.76490   0.00000  Uiso   1.00
C3510  C     0.54523   0.81250   0.94990   0.00000  Uiso   1.00
C3511  C     0.57975   0.81250   0.92072   0.00000  Uiso   1.00
C3512  C     0.52633   0.81250   0.96585   0.00000  Uiso   1.00
C3513  C     0.59865   0.81250   0.90475   0.00000  Uiso   1.00
O3514  O     0.62568   0.93750   0.88990   0.00000  Uiso   1.00
C3515  C     0.57977   0.93750   0.82490   0.00000  Uiso   1.00
C3516  C     0.54525   0.93750   0.79572   0.00000  Uiso   1.00
C3517  C     0.59868   0.93750   0.84085   0.00000  Uiso   1.00
C3518  C     0.52635   0.93750   0.77975   0.00000  Uiso   1.00
O3519  O     0.50068   0.93750   0.98509   0.00000  Uiso   1.00
C3520  C     0.70477   0.93750   0.80010   0.00000  Uiso   1.00
C3521  C     0.67025   0.93750   0.82928   0.00000  Uiso   1.00
C3522  C     0.72367   0.93750   0.78415   0.00000  Uiso   1.00
C3523  C     0.65135   0.93750   0.84525   0.00000  Uiso   1.00
O3524  O     0.62432   0.81250   0.86010   0.00000  Uiso   1.00
C3525  C     0.67022   0.81250   0.92510   0.00000  Uiso   1.00
C3526  C     0.70475   0.81250   0.95427   0.00000  Uiso   1.00
C3527  C     0.65133   0.81250   0.90915   0.00000  Uiso   1.00
C3528  C     0.72365   0.81250   0.97025   0.00000  Uiso   1.00
C3529  C     0.80387   0.76780   0.94260   0.00000  Uiso   1.00
C3530  C     0.82113   0.76780   0.92800   0.00000  Uiso   1.00
O3531  O     0.76815   0.77008   0.97277   0.00000  Uiso   1.00
O3532  O     0.85683   0.77008   0.89782   0.00000  Uiso   1.00
C3533  C     0.82113   0.98220   0.81760   0.00000  Uiso   1.00
C3534  C     0.80387   0.98220   0.80300   0.00000  Uiso   1.00
O3535  O     0.85685   0.97992   0.84777   0.00000  Uiso   1.00
O3536  O     0.76818   0.97992   0.77282   0.00000  Uiso   1.00
C3537  C     0.94613   0.89280   0.80740   0.00000  Uiso   1.00
C3538  C     0.92887   0.89280   0.82200   0.00000  Uiso   1.00
O3539  O     0.98185   0.89508   0.77723   0.00000  Uiso   1.00
O3540  O     0.89317   0.89508   0.85217   0.00000  Uiso   1.00
C3541  C     0.92887   0.85720   0.93240   0.00000  Uiso   1.00
C3542  C     0.94613   0.85720   0.94700   0.00000  Uiso   1.00
O3543  O     0.89315   0.85492   0.90222   0.00000  Uiso   1.00
O3544  O     0.98182   0.85492   0.97717   0.00000  Uiso   1.00
C3545  C     0.94613   0.98220   0.80740   0.00000  Uiso   1.00
C3546  C     0.92887   0.98220   0.82200   0.00000  Uiso   1.00
O3547  O     0.98185   0.97992   0.77723   0.00000  Uiso   1.00
O3548  O     0.89317   0.97992   0.85217   0.00000  Uiso   1.00
C3549  C     0.92887   0.76780   0.93240   0.00000  Uiso   1.00
C3550  C     0.94613   0.76780   0.94700   0.00000  Uiso   1.00
O3551  O     0.89315   0.77008   0.90222   0.00000  Uiso   1.00
O3552  O     0.98182   0.77008   0.97717   0.00000  Uiso   1.00
C3553  C     0.80387   0.85720   0.94260   0.00000  Uiso   1.00
C3554  C     0.82113   0.85720   0.92800   0.00000  Uiso   1.00
O3555  O     0.76815   0.85492   0.97277   0.00000  Uiso   1.00
O3556  O     0.85683   0.85492   0.89782   0.00000  Uiso   1.00
C3557  C     0.82113   0.89280   0.81760   0.00000  Uiso   1.00
C3558  C     0.80387   0.89280   0.80300   0.00000  Uiso   1.00
O3559  O     0.85685   0.89508   0.84777   0.00000  Uiso   1.00
O3560  O     0.76818   0.89508   0.77282   0.00000  Uiso   1.00
Al3561 Al    0.75000   0.75000   0.75000   0.00000  Uiso   1.00
Al3562 Al    0.87500   0.75000   0.87500   0.00000  Uiso   1.00
Al3563 Al    0.75000   0.87500   0.75000   0.00000  Uiso   1.00
Al3564 Al    0.87500   0.87500   0.87500   0.00000  Uiso   1.00
O3565  O     0.99932   0.81250   0.76490   0.00000  Uiso   1.00
C3566  C     0.79523   0.81250   0.94990   0.00000  Uiso   1.00
C3567  C     0.82975   0.81250   0.92072   0.00000  Uiso   1.00
C3568  C     0.77633   0.81250   0.96585   0.00000  Uiso   1.00
C3569  C     0.84865   0.81250   0.90475   0.00000  Uiso   1.00
O3570  O     0.87568   0.93750   0.88990   0.00000  Uiso   1.00
C3571  C     0.82977   0.93750   0.82490   0.00000  Uiso   1.00
C3572  C     0.79525   0.93750   0.79572   0.00000  Uiso   1.00
C3573  C     0.84867   0.93750   0.84085   0.00000  Uiso   1.00
C3574  C     0.77635   0.93750   0.77975   0.00000  Uiso   1.00
O3575  O     0.75068   0.93750   0.98509   0.00000  Uiso   1.00
C3576  C     0.95477   0.93750   0.80010   0.00000  Uiso   1.00
C3577  C     0.92025   0.93750   0.82928   0.00000  Uiso   1.00
C3578  C     0.97367   0.93750   0.78415   0.00000  Uiso   1.00
C3579  C     0.90135   0.93750   0.84525   0.00000  Uiso   1.00
O3580  O     0.87432   0.81250   0.86010   0.00000  Uiso   1.00
C3581  C     0.92022   0.81250   0.92510   0.00000  Uiso   1.00
C3582  C     0.95475   0.81250   0.95427   0.00000  Uiso   1.00
C3583  C     0.90133   0.81250   0.90915   0.00000  Uiso   1.00
C3584  C     0.97365   0.81250   0.97025   0.00000  Uiso   1.00
loop_
_geom_bond_atom_site_label_1
_geom_bond_atom_site_label_2
_geom_bond_distance
_geom_bond_site_symmetry_2
_ccdc_geom_bond_type
C1     C2      1.371   .     A
C1     C38     1.371   .     A
C2     C39     1.369   .     A
O3     Al929   1.958   .     S
O3     C40     1.300   .     A
O4     C41     1.300   .     A
O4     Al34    1.788   .     S
C5     C6      1.371   .     A
C5     C43     1.371   .     A
C6     C44     1.369   .     A
O7     Al258   1.958   .     S
O7     C45     1.300   .     A
O8     C46     1.300   .     A
O8     Al257   1.788   .     S
C9     C10     1.371   .     A
C9     C48     1.371   .     A
C10    C49     1.369   .     A
O11    Al91    1.958   .     S
O11    C50     1.300   .     A
O12    C51     1.300   .     A
O12    Al36    1.788   .     S
C13    C14     1.371   .     A
C13    C53     1.371   .     A
C14    C54     1.369   .     A
O15    Al36    1.958   .     S
O15    C55     1.300   .     A
O16    C56     1.300   .     A
O16    Al987   1.788   .     S
C17    C18     1.371   .     A
C17    C48     1.371   .     A
C18    C49     1.369   .     A
O19    Al313   1.958   .     S
O19    C50     1.300   .     A
O20    C51     1.300   .     A
O20    Al258   1.788   .     S
C21    C22     1.371   .     A
C21    C53     1.371   .     A
C22    C54     1.369   .     A
O23    Al34    1.958   .     S
O23    C55     1.300   .     A
O24    C56     1.300   .     A
O24    Al985   1.788   .     S
C25    C26     1.371   .     A
C25    C38     1.371   .     A
C26    C39     1.369   .     A
O27    Al931   1.958   .     S
O27    C40     1.300   .     A
O28    C41     1.300   .     A
O28    Al36    1.788   .     S
C29    C30     1.371   .     A
C29    C43     1.371   .     A
C30    C44     1.369   .     A
O31    Al36    1.958   .     S
O31    C45     1.300   .     A
O32    C46     1.300   .     A
O32    Al35    1.788   .     S
Al33   O2691   1.958   1_554 S
Al33   O859    1.958   1_445 S
Al33   O205    1.844   1_455 S
Al33   O3407   1.844   1_544 S
Al33   O680    1.788   1_545 S
Al33   O2880   1.788   1_454 S
Al34   O679    1.958   1_545 S
Al34   O714    1.844   1_545 S
Al34   O52     1.844   .     S
Al34   O692    1.788   1_545 S
Al35   O179    1.958   1_455 S
Al35   O2715   1.958   1_554 S
Al35   O2735   1.844   1_554 S
Al35   O205    1.844   1_455 S
Al35   O2872   1.788   1_454 S
Al36   O52     1.844   .     S
Al36   O42     1.844   .     S
O37    Al89    1.844   .     S
O37    Al91    1.844   .     S
C38    C40     1.500   .     S
C39    C41     1.500   .     S
O42    Al258   1.844   .     S
C43    C45     1.500   .     S
C44    C46     1.500   .     S
O47    Al931   1.844   .     S
O47    Al1153  1.844   .     S
C48    C50     1.500   .     S
C49    C51     1.500   .     S
C53    C55     1.500   .     S
C54    C56     1.500   .     S
C57    C58     1.371   .     A
C57    C94     1.371   .     A
C58    C95     1.369   .     A
O59    Al985   1.958   .     S
O59    C96     1.300   .     A
O60    C97     1.300   .     A
O60    Al90    1.788   .     S
C61    C62     1.371   .     A
C61    C99     1.371   .     A
C62    C100    1.369   .     A
O63    Al314   1.958   .     S
O63    C101    1.300   .     A
O64    C102    1.300   .     A
O64    Al313   1.788   .     S
C65    C66     1.371   .     A
C65    C104    1.371   .     A
C66    C105    1.369   .     A
O67    Al147   1.958   .     S
O67    C106    1.300   .     A
O68    C107    1.300   .     A
O68    Al92    1.788   .     S
C69    C70     1.371   .     A
C69    C109    1.371   .     A
C70    C110    1.369   .     A
O71    Al92    1.958   .     S
O71    C111    1.300   .     A
O72    C112    1.300   .     A
O72    Al1043  1.788   .     S
C73    C74     1.371   .     A
C73    C104    1.371   .     A
C74    C105    1.369   .     A
O75    Al369   1.958   .     S
O75    C106    1.300   .     A
O76    C107    1.300   .     A
O76    Al314   1.788   .     S
C77    C78     1.371   .     A
C77    C109    1.371   .     A
C78    C110    1.369   .     A
O79    Al90    1.958   .     S
O79    C111    1.300   .     A
O80    C112    1.300   .     A
O80    Al1041  1.788   .     S
C81    C82     1.371   .     A
C81    C94     1.371   .     A
C82    C95     1.369   .     A
O83    Al987   1.958   .     S
O83    C96     1.300   .     A
O84    C97     1.300   .     A
O84    Al92    1.788   .     S
C85    C86     1.371   .     A
C85    C99     1.371   .     A
C86    C100    1.369   .     A
O87    Al92    1.958   .     S
O87    C101    1.300   .     A
O88    C102    1.300   .     A
O88    Al91    1.788   .     S
Al89   O2747   1.958   1_554 S
Al89   O691    1.958   1_545 S
Al89   O3463   1.844   1_544 S
Al89   O736    1.788   1_545 S
Al89   O2712   1.788   1_554 S
Al90   O735    1.958   1_545 S
Al90   O770    1.844   1_545 S
Al90   O108    1.844   .     S
Al90   O748    1.788   1_545 S
Al91   O2771   1.958   1_554 S
Al91   O2791   1.844   1_554 S
Al91   O2704   1.788   1_554 S
Al92   O108    1.844   .     S
Al92   O98     1.844   .     S
O93    Al145   1.844   .     S
O93    Al147   1.844   .     S
C94    C96     1.500   .     S
C95    C97     1.500   .     S
O98    Al314   1.844   .     S
C99    C101    1.500   .     S
C100   C102    1.500   .     S
O103   Al987   1.844   .     S
O103   Al1209  1.844   .     S
C104   C106    1.500   .     S
C105   C107    1.500   .     S
C109   C111    1.500   .     S
C110   C112    1.500   .     S
C113   C114    1.371   .     A
C113   C150    1.371   .     A
C114   C151    1.369   .     A
O115   Al1041  1.958   .     S
O115   C152    1.300   .     A
O116   C153    1.300   .     A
O116   Al146   1.788   .     S
C117   C118    1.371   .     A
C117   C155    1.371   .     A
C118   C156    1.369   .     A
O119   Al370   1.958   .     S
O119   C157    1.300   .     A
O120   C158    1.300   .     A
O120   Al369   1.788   .     S
C121   C122    1.371   .     A
C121   C160    1.371   .     A
C122   C161    1.369   .     A
O123   Al203   1.958   .     S
O123   C162    1.300   .     A
O124   C163    1.300   .     A
O124   Al148   1.788   .     S
C125   C126    1.371   .     A
C125   C165    1.371   .     A
C126   C166    1.369   .     A
O127   Al148   1.958   .     S
O127   C167    1.300   .     A
O128   C168    1.300   .     A
O128   Al1099  1.788   .     S
C129   C130    1.371   .     A
C129   C160    1.371   .     A
C130   C161    1.369   .     A
O131   Al425   1.958   .     S
O131   C162    1.300   .     A
O132   C163    1.300   .     A
O132   Al370   1.788   .     S
C133   C134    1.371   .     A
C133   C165    1.371   .     A
C134   C166    1.369   .     A
O135   Al146   1.958   .     S
O135   C167    1.300   .     A
O136   C168    1.300   .     A
O136   Al1097  1.788   .     S
C137   C138    1.371   .     A
C137   C150    1.371   .     A
C138   C151    1.369   .     A
O139   Al1043  1.958   .     S
O139   C152    1.300   .     A
O140   C153    1.300   .     A
O140   Al148   1.788   .     S
C141   C142    1.371   .     A
C141   C155    1.371   .     A
C142   C156    1.369   .     A
O143   Al148   1.958   .     S
O143   C157    1.300   .     A
O144   C158    1.300   .     A
O144   Al147   1.788   .     S
Al145  O2803   1.958   1_554 S
Al145  O747    1.958   1_545 S
Al145  O3519   1.844   1_544 S
Al145  O792    1.788   1_545 S
Al145  O2768   1.788   1_554 S
Al146  O791    1.958   1_545 S
Al146  O826    1.844   1_545 S
Al146  O164    1.844   .     S
Al146  O804    1.788   1_545 S
Al147  O2827   1.958   1_554 S
Al147  O2847   1.844   1_554 S
Al147  O2760   1.788   1_554 S
Al148  O164    1.844   .     S
Al148  O154    1.844   .     S
O149   Al201   1.844   .     S
O149   Al203   1.844   .     S
C150   C152    1.500   .     S
C151   C153    1.500   .     S
O154   Al370   1.844   .     S
C155   C157    1.500   .     S
C156   C158    1.500   .     S
O159   Al1043  1.844   .     S
O159   Al1265  1.844   .     S
C160   C162    1.500   .     S
C161   C163    1.500   .     S
C165   C167    1.500   .     S
C166   C168    1.500   .     S
C169   C170    1.371   .     A
C169   C206    1.371   .     A
C170   C207    1.369   .     A
O171   Al1097  1.958   .     S
O171   C208    1.300   .     A
O172   C209    1.300   .     A
O172   Al202   1.788   .     S
C173   C174    1.371   .     A
C173   C211    1.371   .     A
C174   C212    1.369   .     A
O175   Al426   1.958   .     S
O175   C213    1.300   .     A
O176   C214    1.300   .     A
O176   Al425   1.788   .     S
C177   C178    1.371   .     A
C177   C216    1.371   .     A
C178   C217    1.369   .     A
O179   Al35    1.958   1_655 S
O179   C218    1.300   .     A
O180   C219    1.300   .     A
O180   Al204   1.788   .     S
C181   C182    1.371   .     A
C181   C221    1.371   .     A
C182   C222    1.369   .     A
O183   Al204   1.958   .     S
O183   C223    1.300   .     A
O184   C224    1.300   .     A
O184   Al931   1.788   1_655 S
C185   C186    1.371   .     A
C185   C216    1.371   .     A
C186   C217    1.369   .     A
O187   Al257   1.958   1_655 S
O187   C218    1.300   .     A
O188   C219    1.300   .     A
O188   Al426   1.788   .     S
C189   C190    1.371   .     A
C189   C221    1.371   .     A
C190   C222    1.369   .     A
O191   Al202   1.958   .     S
O191   C223    1.300   .     A
O192   C224    1.300   .     A
O192   Al929   1.788   1_655 S
C193   C194    1.371   .     A
C193   C206    1.371   .     A
C194   C207    1.369   .     A
O195   Al1099  1.958   .     S
O195   C208    1.300   .     A
O196   C209    1.300   .     A
O196   Al204   1.788   .     S
C197   C198    1.371   .     A
C197   C211    1.371   .     A
C198   C212    1.369   .     A
O199   Al204   1.958   .     S
O199   C213    1.300   .     A
O200   C214    1.300   .     A
O200   Al203   1.788   .     S
Al201  O2859   1.958   1_554 S
Al201  O803    1.958   1_545 S
Al201  O3575   1.844   1_544 S
Al201  O848    1.788   1_545 S
Al201  O2824   1.788   1_554 S
Al202  O847    1.958   1_545 S
Al202  O882    1.844   1_545 S
Al202  O220    1.844   .     S
Al202  O860    1.788   1_545 S
Al203  O2883   1.958   1_554 S
Al203  O2903   1.844   1_554 S
Al203  O2816   1.788   1_554 S
Al204  O220    1.844   .     S
Al204  O210    1.844   .     S
O205   Al33    1.844   1_655 S
O205   Al35    1.844   1_655 S
C206   C208    1.500   .     S
C207   C209    1.500   .     S
O210   Al426   1.844   .     S
C211   C213    1.500   .     S
C212   C214    1.500   .     S
O215   Al1099  1.844   .     S
O215   Al1321  1.844   .     S
C216   C218    1.500   .     S
C217   C219    1.500   .     S
C221   C223    1.500   .     S
C222   C224    1.500   .     S
C225   C226    1.371   .     A
C225   C262    1.371   .     A
C226   C263    1.369   .     A
O227   Al1153  1.958   .     S
O227   C264    1.300   .     A
O228   C265    1.300   .     A
O228   Al258   1.788   .     S
C229   C230    1.371   .     A
C229   C267    1.371   .     A
C230   C268    1.369   .     A
O231   Al482   1.958   .     S
O231   C269    1.300   .     A
O232   C270    1.300   .     A
O232   Al481   1.788   .     S
C233   C234    1.371   .     A
C233   C272    1.371   .     A
C234   C273    1.369   .     A
O235   Al315   1.958   .     S
O235   C274    1.300   .     A
O236   C275    1.300   .     A
O236   Al260   1.788   .     S
C237   C238    1.371   .     A
C237   C277    1.371   .     A
C238   C278    1.369   .     A
O239   Al260   1.958   .     S
O239   C279    1.300   .     A
O240   C280    1.300   .     A
O240   Al1211  1.788   .     S
C241   C242    1.371   .     A
C241   C272    1.371   .     A
C242   C273    1.369   .     A
O243   Al537   1.958   .     S
O243   C274    1.300   .     A
O244   C275    1.300   .     A
O244   Al482   1.788   .     S
C245   C246    1.371   .     A
C245   C277    1.371   .     A
C246   C278    1.369   .     A
O247   Al258   1.958   .     S
O247   C279    1.300   .     A
O248   C280    1.300   .     A
O248   Al1209  1.788   .     S
C249   C250    1.371   .     A
C249   C262    1.371   .     A
C250   C263    1.369   .     A
O251   Al1155  1.958   .     S
O251   C264    1.300   .     A
O252   C265    1.300   .     A
O252   Al260   1.788   .     S
C253   C254    1.371   .     A
C253   C267    1.371   .     A
C254   C268    1.369   .     A
O255   Al260   1.958   .     S
O255   C269    1.300   .     A
O256   C270    1.300   .     A
O256   Al259   1.788   .     S
Al257  O2915   1.958   1_554 S
Al257  O187    1.958   1_455 S
Al257  O429    1.844   1_455 S
Al257  O2735   1.844   1_554 S
Al257  O3104   1.788   1_454 S
Al258  O276    1.844   .     S
Al259  O403    1.958   1_455 S
Al259  O2939   1.958   1_554 S
Al259  O2959   1.844   1_554 S
Al259  O429    1.844   1_455 S
Al259  O3096   1.788   1_454 S
Al260  O276    1.844   .     S
Al260  O266    1.844   .     S
O261   Al313   1.844   .     S
O261   Al315   1.844   .     S
C262   C264    1.500   .     S
C263   C265    1.500   .     S
O266   Al482   1.844   .     S
C267   C269    1.500   .     S
C268   C270    1.500   .     S
O271   Al1155  1.844   .     S
O271   Al1377  1.844   .     S
C272   C274    1.500   .     S
C273   C275    1.500   .     S
C277   C279    1.500   .     S
C278   C280    1.500   .     S
C281   C282    1.371   .     A
C281   C318    1.371   .     A
C282   C319    1.369   .     A
O283   Al1209  1.958   .     S
O283   C320    1.300   .     A
O284   C321    1.300   .     A
O284   Al314   1.788   .     S
C285   C286    1.371   .     A
C285   C323    1.371   .     A
C286   C324    1.369   .     A
O287   Al538   1.958   .     S
O287   C325    1.300   .     A
O288   C326    1.300   .     A
O288   Al537   1.788   .     S
C289   C290    1.371   .     A
C289   C328    1.371   .     A
C290   C329    1.369   .     A
O291   Al371   1.958   .     S
O291   C330    1.300   .     A
O292   C331    1.300   .     A
O292   Al316   1.788   .     S
C293   C294    1.371   .     A
C293   C333    1.371   .     A
C294   C334    1.369   .     A
O295   Al316   1.958   .     S
O295   C335    1.300   .     A
O296   C336    1.300   .     A
O296   Al1267  1.788   .     S
C297   C298    1.371   .     A
C297   C328    1.371   .     A
C298   C329    1.369   .     A
O299   Al593   1.958   .     S
O299   C330    1.300   .     A
O300   C331    1.300   .     A
O300   Al538   1.788   .     S
C301   C302    1.371   .     A
C301   C333    1.371   .     A
C302   C334    1.369   .     A
O303   Al314   1.958   .     S
O303   C335    1.300   .     A
O304   C336    1.300   .     A
O304   Al1265  1.788   .     S
C305   C306    1.371   .     A
C305   C318    1.371   .     A
C306   C319    1.369   .     A
O307   Al1211  1.958   .     S
O307   C320    1.300   .     A
O308   C321    1.300   .     A
O308   Al316   1.788   .     S
C309   C310    1.371   .     A
C309   C323    1.371   .     A
C310   C324    1.369   .     A
O311   Al316   1.958   .     S
O311   C325    1.300   .     A
O312   C326    1.300   .     A
O312   Al315   1.788   .     S
Al313  O2971   1.958   1_554 S
Al313  O2791   1.844   1_554 S
Al313  O2936   1.788   1_554 S
Al314  O332    1.844   .     S
Al315  O2995   1.958   1_554 S
Al315  O3015   1.844   1_554 S
Al315  O2928   1.788   1_554 S
Al316  O332    1.844   .     S
Al316  O322    1.844   .     S
O317   Al369   1.844   .     S
O317   Al371   1.844   .     S
C318   C320    1.500   .     S
C319   C321    1.500   .     S
O322   Al538   1.844   .     S
C323   C325    1.500   .     S
C324   C326    1.500   .     S
O327   Al1211  1.844   .     S
O327   Al1433  1.844   .     S
C328   C330    1.500   .     S
C329   C331    1.500   .     S
C333   C335    1.500   .     S
C334   C336    1.500   .     S
C337   C338    1.371   .     A
C337   C374    1.371   .     A
C338   C375    1.369   .     A
O339   Al1265  1.958   .     S
O339   C376    1.300   .     A
O340   C377    1.300   .     A
O340   Al370   1.788   .     S
C341   C342    1.371   .     A
C341   C379    1.371   .     A
C342   C380    1.369   .     A
O343   Al594   1.958   .     S
O343   C381    1.300   .     A
O344   C382    1.300   .     A
O344   Al593   1.788   .     S
C345   C346    1.371   .     A
C345   C384    1.371   .     A
C346   C385    1.369   .     A
O347   Al427   1.958   .     S
O347   C386    1.300   .     A
O348   C387    1.300   .     A
O348   Al372   1.788   .     S
C349   C350    1.371   .     A
C349   C389    1.371   .     A
C350   C390    1.369   .     A
O351   Al372   1.958   .     S
O351   C391    1.300   .     A
O352   C392    1.300   .     A
O352   Al1323  1.788   .     S
C353   C354    1.371   .     A
C353   C384    1.371   .     A
C354   C385    1.369   .     A
O355   Al649   1.958   .     S
O355   C386    1.300   .     A
O356   C387    1.300   .     A
O356   Al594   1.788   .     S
C357   C358    1.371   .     A
C357   C389    1.371   .     A
C358   C390    1.369   .     A
O359   Al370   1.958   .     S
O359   C391    1.300   .     A
O360   C392    1.300   .     A
O360   Al1321  1.788   .     S
C361   C362    1.371   .     A
C361   C374    1.371   .     A
C362   C375    1.369   .     A
O363   Al1267  1.958   .     S
O363   C376    1.300   .     A
O364   C377    1.300   .     A
O364   Al372   1.788   .     S
C365   C366    1.371   .     A
C365   C379    1.371   .     A
C366   C380    1.369   .     A
O367   Al372   1.958   .     S
O367   C381    1.300   .     A
O368   C382    1.300   .     A
O368   Al371   1.788   .     S
Al369  O3027   1.958   1_554 S
Al369  O2847   1.844   1_554 S
Al369  O2992   1.788   1_554 S
Al370  O388    1.844   .     S
Al371  O3051   1.958   1_554 S
Al371  O3071   1.844   1_554 S
Al371  O2984   1.788   1_554 S
Al372  O388    1.844   .     S
Al372  O378    1.844   .     S
O373   Al425   1.844   .     S
O373   Al427   1.844   .     S
C374   C376    1.500   .     S
C375   C377    1.500   .     S
O378   Al594   1.844   .     S
C379   C381    1.500   .     S
C380   C382    1.500   .     S
O383   Al1267  1.844   .     S
O383   Al1489  1.844   .     S
C384   C386    1.500   .     S
C385   C387    1.500   .     S
C389   C391    1.500   .     S
C390   C392    1.500   .     S
C393   C394    1.371   .     A
C393   C430    1.371   .     A
C394   C431    1.369   .     A
O395   Al1321  1.958   .     S
O395   C432    1.300   .     A
O396   C433    1.300   .     A
O396   Al426   1.788   .     S
C397   C398    1.371   .     A
C397   C435    1.371   .     A
C398   C436    1.369   .     A
O399   Al650   1.958   .     S
O399   C437    1.300   .     A
O400   C438    1.300   .     A
O400   Al649   1.788   .     S
C401   C402    1.371   .     A
C401   C440    1.371   .     A
C402   C441    1.369   .     A
O403   Al259   1.958   1_655 S
O403   C442    1.300   .     A
O404   C443    1.300   .     A
O404   Al428   1.788   .     S
C405   C406    1.371   .     A
C405   C445    1.371   .     A
C406   C446    1.369   .     A
O407   Al428   1.958   .     S
O407   C447    1.300   .     A
O408   C448    1.300   .     A
O408   Al1155  1.788   1_655 S
C409   C410    1.371   .     A
C409   C440    1.371   .     A
C410   C441    1.369   .     A
O411   Al481   1.958   1_655 S
O411   C442    1.300   .     A
O412   C443    1.300   .     A
O412   Al650   1.788   .     S
C413   C414    1.371   .     A
C413   C445    1.371   .     A
C414   C446    1.369   .     A
O415   Al426   1.958   .     S
O415   C447    1.300   .     A
O416   C448    1.300   .     A
O416   Al1153  1.788   1_655 S
C417   C418    1.371   .     A
C417   C430    1.371   .     A
C418   C431    1.369   .     A
O419   Al1323  1.958   .     S
O419   C432    1.300   .     A
O420   C433    1.300   .     A
O420   Al428   1.788   .     S
C421   C422    1.371   .     A
C421   C435    1.371   .     A
C422   C436    1.369   .     A
O423   Al428   1.958   .     S
O423   C437    1.300   .     A
O424   C438    1.300   .     A
O424   Al427   1.788   .     S
Al425  O3083   1.958   1_554 S
Al425  O2903   1.844   1_554 S
Al425  O3048   1.788   1_554 S
Al426  O444    1.844   .     S
Al427  O3107   1.958   1_554 S
Al427  O3127   1.844   1_554 S
Al427  O3040   1.788   1_554 S
Al428  O444    1.844   .     S
Al428  O434    1.844   .     S
O429   Al257   1.844   1_655 S
O429   Al259   1.844   1_655 S
C430   C432    1.500   .     S
C431   C433    1.500   .     S
O434   Al650   1.844   .     S
C435   C437    1.500   .     S
C436   C438    1.500   .     S
O439   Al1323  1.844   .     S
O439   Al1545  1.844   .     S
C440   C442    1.500   .     S
C441   C443    1.500   .     S
C445   C447    1.500   .     S
C446   C448    1.500   .     S
C449   C450    1.371   .     A
C449   C486    1.371   .     A
C450   C487    1.369   .     A
O451   Al1377  1.958   .     S
O451   C488    1.300   .     A
O452   C489    1.300   .     A
O452   Al482   1.788   .     S
C453   C454    1.371   .     A
C453   C491    1.371   .     A
C454   C492    1.369   .     A
O455   Al706   1.958   .     S
O455   C493    1.300   .     A
O456   C494    1.300   .     A
O456   Al705   1.788   .     S
C457   C458    1.371   .     A
C457   C496    1.371   .     A
C458   C497    1.369   .     A
O459   Al539   1.958   .     S
O459   C498    1.300   .     A
O460   C499    1.300   .     A
O460   Al484   1.788   .     S
C461   C462    1.371   .     A
C461   C501    1.371   .     A
C462   C502    1.369   .     A
O463   Al484   1.958   .     S
O463   C503    1.300   .     A
O464   C504    1.300   .     A
O464   Al1435  1.788   .     S
C465   C466    1.371   .     A
C465   C496    1.371   .     A
C466   C497    1.369   .     A
O467   Al761   1.958   .     S
O467   C498    1.300   .     A
O468   C499    1.300   .     A
O468   Al706   1.788   .     S
C469   C470    1.371   .     A
C469   C501    1.371   .     A
C470   C502    1.369   .     A
O471   Al482   1.958   .     S
O471   C503    1.300   .     A
O472   C504    1.300   .     A
O472   Al1433  1.788   .     S
C473   C474    1.371   .     A
C473   C486    1.371   .     A
C474   C487    1.369   .     A
O475   Al1379  1.958   .     S
O475   C488    1.300   .     A
O476   C489    1.300   .     A
O476   Al484   1.788   .     S
C477   C478    1.371   .     A
C477   C491    1.371   .     A
C478   C492    1.369   .     A
O479   Al484   1.958   .     S
O479   C493    1.300   .     A
O480   C494    1.300   .     A
O480   Al483   1.788   .     S
Al481  O3139   1.958   1_554 S
Al481  O411    1.958   1_455 S
Al481  O653    1.844   1_455 S
Al481  O2959   1.844   1_554 S
Al481  O3328   1.788   1_454 S
Al482  O500    1.844   .     S
Al483  O627    1.958   1_455 S
Al483  O3163   1.958   1_554 S
Al483  O3183   1.844   1_554 S
Al483  O653    1.844   1_455 S
Al483  O3320   1.788   1_454 S
Al484  O500    1.844   .     S
Al484  O490    1.844   .     S
O485   Al537   1.844   .     S
O485   Al539   1.844   .     S
C486   C488    1.500   .     S
C487   C489    1.500   .     S
O490   Al706   1.844   .     S
C491   C493    1.500   .     S
C492   C494    1.500   .     S
O495   Al1379  1.844   .     S
O495   Al1601  1.844   .     S
C496   C498    1.500   .     S
C497   C499    1.500   .     S
C501   C503    1.500   .     S
C502   C504    1.500   .     S
C505   C506    1.371   .     A
C505   C542    1.371   .     A
C506   C543    1.369   .     A
O507   Al1433  1.958   .     S
O507   C544    1.300   .     A
O508   C545    1.300   .     A
O508   Al538   1.788   .     S
C509   C510    1.371   .     A
C509   C547    1.371   .     A
C510   C548    1.369   .     A
O511   Al762   1.958   .     S
O511   C549    1.300   .     A
O512   C550    1.300   .     A
O512   Al761   1.788   .     S
C513   C514    1.371   .     A
C513   C552    1.371   .     A
C514   C553    1.369   .     A
O515   Al595   1.958   .     S
O515   C554    1.300   .     A
O516   C555    1.300   .     A
O516   Al540   1.788   .     S
C517   C518    1.371   .     A
C517   C557    1.371   .     A
C518   C558    1.369   .     A
O519   Al540   1.958   .     S
O519   C559    1.300   .     A
O520   C560    1.300   .     A
O520   Al1491  1.788   .     S
C521   C522    1.371   .     A
C521   C552    1.371   .     A
C522   C553    1.369   .     A
O523   Al817   1.958   .     S
O523   C554    1.300   .     A
O524   C555    1.300   .     A
O524   Al762   1.788   .     S
C525   C526    1.371   .     A
C525   C557    1.371   .     A
C526   C558    1.369   .     A
O527   Al538   1.958   .     S
O527   C559    1.300   .     A
O528   C560    1.300   .     A
O528   Al1489  1.788   .     S
C529   C530    1.371   .     A
C529   C542    1.371   .     A
C530   C543    1.369   .     A
O531   Al1435  1.958   .     S
O531   C544    1.300   .     A
O532   C545    1.300   .     A
O532   Al540   1.788   .     S
C533   C534    1.371   .     A
C533   C547    1.371   .     A
C534   C548    1.369   .     A
O535   Al540   1.958   .     S
O535   C549    1.300   .     A
O536   C550    1.300   .     A
O536   Al539   1.788   .     S
Al537  O3195   1.958   1_554 S
Al537  O3015   1.844   1_554 S
Al537  O3160   1.788   1_554 S
Al538  O556    1.844   .     S
Al539  O3219   1.958   1_554 S
Al539  O3239   1.844   1_554 S
Al539  O3152   1.788   1_554 S
Al540  O556    1.844   .     S
Al540  O546    1.844   .     S
O541   Al593   1.844   .     S
O541   Al595   1.844   .     S
C542   C544    1.500   .     S
C543   C545    1.500   .     S
O546   Al762   1.844   .     S
C547   C549    1.500   .     S
C548   C550    1.500   .     S
O551   Al1435  1.844   .     S
O551   Al1657  1.844   .     S
C552   C554    1.500   .     S
C553   C555    1.500   .     S
C557   C559    1.500   .     S
C558   C560    1.500   .     S
C561   C562    1.371   .     A
C561   C598    1.371   .     A
C562   C599    1.369   .     A
O563   Al1489  1.958   .     S
O563   C600    1.300   .     A
O564   C601    1.300   .     A
O564   Al594   1.788   .     S
C565   C566    1.371   .     A
C565   C603    1.371   .     A
C566   C604    1.369   .     A
O567   Al818   1.958   .     S
O567   C605    1.300   .     A
O568   C606    1.300   .     A
O568   Al817   1.788   .     S
C569   C570    1.371   .     A
C569   C608    1.371   .     A
C570   C609    1.369   .     A
O571   Al651   1.958   .     S
O571   C610    1.300   .     A
O572   C611    1.300   .     A
O572   Al596   1.788   .     S
C573   C574    1.371   .     A
C573   C613    1.371   .     A
C574   C614    1.369   .     A
O575   Al596   1.958   .     S
O575   C615    1.300   .     A
O576   C616    1.300   .     A
O576   Al1547  1.788   .     S
C577   C578    1.371   .     A
C577   C608    1.371   .     A
C578   C609    1.369   .     A
O579   Al873   1.958   .     S
O579   C610    1.300   .     A
O580   C611    1.300   .     A
O580   Al818   1.788   .     S
C581   C582    1.371   .     A
C581   C613    1.371   .     A
C582   C614    1.369   .     A
O583   Al594   1.958   .     S
O583   C615    1.300   .     A
O584   C616    1.300   .     A
O584   Al1545  1.788   .     S
C585   C586    1.371   .     A
C585   C598    1.371   .     A
C586   C599    1.369   .     A
O587   Al1491  1.958   .     S
O587   C600    1.300   .     A
O588   C601    1.300   .     A
O588   Al596   1.788   .     S
C589   C590    1.371   .     A
C589   C603    1.371   .     A
C590   C604    1.369   .     A
O591   Al596   1.958   .     S
O591   C605    1.300   .     A
O592   C606    1.300   .     A
O592   Al595   1.788   .     S
Al593  O3251   1.958   1_554 S
Al593  O3071   1.844   1_554 S
Al593  O3216   1.788   1_554 S
Al594  O612    1.844   .     S
Al595  O3275   1.958   1_554 S
Al595  O3295   1.844   1_554 S
Al595  O3208   1.788   1_554 S
Al596  O612    1.844   .     S
Al596  O602    1.844   .     S
O597   Al649   1.844   .     S
O597   Al651   1.844   .     S
C598   C600    1.500   .     S
C599   C601    1.500   .     S
O602   Al818   1.844   .     S
C603   C605    1.500   .     S
C604   C606    1.500   .     S
O607   Al1491  1.844   .     S
O607   Al1713  1.844   .     S
C608   C610    1.500   .     S
C609   C611    1.500   .     S
C613   C615    1.500   .     S
C614   C616    1.500   .     S
C617   C618    1.371   .     A
C617   C654    1.371   .     A
C618   C655    1.369   .     A
O619   Al1545  1.958   .     S
O619   C656    1.300   .     A
O620   C657    1.300   .     A
O620   Al650   1.788   .     S
C621   C622    1.371   .     A
C621   C659    1.371   .     A
C622   C660    1.369   .     A
O623   Al874   1.958   .     S
O623   C661    1.300   .     A
O624   C662    1.300   .     A
O624   Al873   1.788   .     S
C625   C626    1.371   .     A
C625   C664    1.371   .     A
C626   C665    1.369   .     A
O627   Al483   1.958   1_655 S
O627   C666    1.300   .     A
O628   C667    1.300   .     A
O628   Al652   1.788   .     S
C629   C630    1.371   .     A
C629   C669    1.371   .     A
C630   C670    1.369   .     A
O631   Al652   1.958   .     S
O631   C671    1.300   .     A
O632   C672    1.300   .     A
O632   Al1379  1.788   1_655 S
C633   C634    1.371   .     A
C633   C664    1.371   .     A
C634   C665    1.369   .     A
O635   Al705   1.958   1_655 S
O635   C666    1.300   .     A
O636   C667    1.300   .     A
O636   Al874   1.788   .     S
C637   C638    1.371   .     A
C637   C669    1.371   .     A
C638   C670    1.369   .     A
O639   Al650   1.958   .     S
O639   C671    1.300   .     A
O640   C672    1.300   .     A
O640   Al1377  1.788   1_655 S
C641   C642    1.371   .     A
C641   C654    1.371   .     A
C642   C655    1.369   .     A
O643   Al1547  1.958   .     S
O643   C656    1.300   .     A
O644   C657    1.300   .     A
O644   Al652   1.788   .     S
C645   C646    1.371   .     A
C645   C659    1.371   .     A
C646   C660    1.369   .     A
O647   Al652   1.958   .     S
O647   C661    1.300   .     A
O648   C662    1.300   .     A
O648   Al651   1.788   .     S
Al649  O3307   1.958   1_554 S
Al649  O3127   1.844   1_554 S
Al649  O3272   1.788   1_554 S
Al650  O668    1.844   .     S
Al651  O3331   1.958   1_554 S
Al651  O3351   1.844   1_554 S
Al651  O3264   1.788   1_554 S
Al652  O668    1.844   .     S
Al652  O658    1.844   .     S
O653   Al481   1.844   1_655 S
O653   Al483   1.844   1_655 S
C654   C656    1.500   .     S
C655   C657    1.500   .     S
O658   Al874   1.844   .     S
C659   C661    1.500   .     S
C660   C662    1.500   .     S
O663   Al1547  1.844   .     S
O663   Al1769  1.844   .     S
C664   C666    1.500   .     S
C665   C667    1.500   .     S
C669   C671    1.500   .     S
C670   C672    1.500   .     S
C673   C674    1.371   .     A
C673   C710    1.371   .     A
C674   C711    1.369   .     A
O675   Al1601  1.958   .     S
O675   C712    1.300   .     A
O676   C713    1.300   .     A
O676   Al706   1.788   .     S
C677   C678    1.371   .     A
C677   C715    1.371   .     A
C678   C716    1.369   .     A
O679   Al34    1.958   1_565 S
O679   C717    1.300   .     A
O680   C718    1.300   .     A
O680   Al33    1.788   1_565 S
C681   C682    1.371   .     A
C681   C720    1.371   .     A
C682   C721    1.369   .     A
O683   Al763   1.958   .     S
O683   C722    1.300   .     A
O684   C723    1.300   .     A
O684   Al708   1.788   .     S
C685   C686    1.371   .     A
C685   C725    1.371   .     A
C686   C726    1.369   .     A
O687   Al708   1.958   .     S
O687   C727    1.300   .     A
O688   C728    1.300   .     A
O688   Al1659  1.788   .     S
C689   C690    1.371   .     A
C689   C720    1.371   .     A
C690   C721    1.369   .     A
O691   Al89    1.958   1_565 S
O691   C722    1.300   .     A
O692   C723    1.300   .     A
O692   Al34    1.788   1_565 S
C693   C694    1.371   .     A
C693   C725    1.371   .     A
C694   C726    1.369   .     A
O695   Al706   1.958   .     S
O695   C727    1.300   .     A
O696   C728    1.300   .     A
O696   Al1657  1.788   .     S
C697   C698    1.371   .     A
C697   C710    1.371   .     A
C698   C711    1.369   .     A
O699   Al1603  1.958   .     S
O699   C712    1.300   .     A
O700   C713    1.300   .     A
O700   Al708   1.788   .     S
C701   C702    1.371   .     A
C701   C715    1.371   .     A
C702   C716    1.369   .     A
O703   Al708   1.958   .     S
O703   C717    1.300   .     A
O704   C718    1.300   .     A
O704   Al707   1.788   .     S
Al705  O3363   1.958   1_554 S
Al705  O635    1.958   1_455 S
Al705  O877    1.844   1_455 S
Al705  O3183   1.844   1_554 S
Al705  O3552   1.788   1_454 S
Al706  O724    1.844   .     S
Al707  O851    1.958   1_455 S
Al707  O3387   1.958   1_554 S
Al707  O3407   1.844   1_554 S
Al707  O877    1.844   1_455 S
Al707  O3544   1.788   1_454 S
Al708  O724    1.844   .     S
Al708  O714    1.844   .     S
O709   Al761   1.844   .     S
O709   Al763   1.844   .     S
C710   C712    1.500   .     S
C711   C713    1.500   .     S
O714   Al34    1.844   1_565 S
C715   C717    1.500   .     S
C716   C718    1.500   .     S
O719   Al1603  1.844   .     S
O719   Al929   1.844   1_565 S
C720   C722    1.500   .     S
C721   C723    1.500   .     S
C725   C727    1.500   .     S
C726   C728    1.500   .     S
C729   C730    1.371   .     A
C729   C766    1.371   .     A
C730   C767    1.369   .     A
O731   Al1657  1.958   .     S
O731   C768    1.300   .     A
O732   C769    1.300   .     A
O732   Al762   1.788   .     S
C733   C734    1.371   .     A
C733   C771    1.371   .     A
C734   C772    1.369   .     A
O735   Al90    1.958   1_565 S
O735   C773    1.300   .     A
O736   C774    1.300   .     A
O736   Al89    1.788   1_565 S
C737   C738    1.371   .     A
C737   C776    1.371   .     A
C738   C777    1.369   .     A
O739   Al819   1.958   .     S
O739   C778    1.300   .     A
O740   C779    1.300   .     A
O740   Al764   1.788   .     S
C741   C742    1.371   .     A
C741   C781    1.371   .     A
C742   C782    1.369   .     A
O743   Al764   1.958   .     S
O743   C783    1.300   .     A
O744   C784    1.300   .     A
O744   Al1715  1.788   .     S
C745   C746    1.371   .     A
C745   C776    1.371   .     A
C746   C777    1.369   .     A
O747   Al145   1.958   1_565 S
O747   C778    1.300   .     A
O748   C779    1.300   .     A
O748   Al90    1.788   1_565 S
C749   C750    1.371   .     A
C749   C781    1.371   .     A
C750   C782    1.369   .     A
O751   Al762   1.958   .     S
O751   C783    1.300   .     A
O752   C784    1.300   .     A
O752   Al1713  1.788   .     S
C753   C754    1.371   .     A
C753   C766    1.371   .     A
C754   C767    1.369   .     A
O755   Al1659  1.958   .     S
O755   C768    1.300   .     A
O756   C769    1.300   .     A
O756   Al764   1.788   .     S
C757   C758    1.371   .     A
C757   C771    1.371   .     A
C758   C772    1.369   .     A
O759   Al764   1.958   .     S
O759   C773    1.300   .     A
O760   C774    1.300   .     A
O760   Al763   1.788   .     S
Al761  O3419   1.958   1_554 S
Al761  O3239   1.844   1_554 S
Al761  O3384   1.788   1_554 S
Al762  O780    1.844   .     S
Al763  O3443   1.958   1_554 S
Al763  O3463   1.844   1_554 S
Al763  O3376   1.788   1_554 S
Al764  O780    1.844   .     S
Al764  O770    1.844   .     S
O765   Al817   1.844   .     S
O765   Al819   1.844   .     S
C766   C768    1.500   .     S
C767   C769    1.500   .     S
O770   Al90    1.844   1_565 S
C771   C773    1.500   .     S
C772   C774    1.500   .     S
O775   Al1659  1.844   .     S
O775   Al985   1.844   1_565 S
C776   C778    1.500   .     S
C777   C779    1.500   .     S
C781   C783    1.500   .     S
C782   C784    1.500   .     S
C785   C786    1.371   .     A
C785   C822    1.371   .     A
C786   C823    1.369   .     A
O787   Al1713  1.958   .     S
O787   C824    1.300   .     A
O788   C825    1.300   .     A
O788   Al818   1.788   .     S
C789   C790    1.371   .     A
C789   C827    1.371   .     A
C790   C828    1.369   .     A
O791   Al146   1.958   1_565 S
O791   C829    1.300   .     A
O792   C830    1.300   .     A
O792   Al145   1.788   1_565 S
C793   C794    1.371   .     A
C793   C832    1.371   .     A
C794   C833    1.369   .     A
O795   Al875   1.958   .     S
O795   C834    1.300   .     A
O796   C835    1.300   .     A
O796   Al820   1.788   .     S
C797   C798    1.371   .     A
C797   C837    1.371   .     A
C798   C838    1.369   .     A
O799   Al820   1.958   .     S
O799   C839    1.300   .     A
O800   C840    1.300   .     A
O800   Al1771  1.788   .     S
C801   C802    1.371   .     A
C801   C832    1.371   .     A
C802   C833    1.369   .     A
O803   Al201   1.958   1_565 S
O803   C834    1.300   .     A
O804   C835    1.300   .     A
O804   Al146   1.788   1_565 S
C805   C806    1.371   .     A
C805   C837    1.371   .     A
C806   C838    1.369   .     A
O807   Al818   1.958   .     S
O807   C839    1.300   .     A
O808   C840    1.300   .     A
O808   Al1769  1.788   .     S
C809   C810    1.371   .     A
C809   C822    1.371   .     A
C810   C823    1.369   .     A
O811   Al1715  1.958   .     S
O811   C824    1.300   .     A
O812   C825    1.300   .     A
O812   Al820   1.788   .     S
C813   C814    1.371   .     A
C813   C827    1.371   .     A
C814   C828    1.369   .     A
O815   Al820   1.958   .     S
O815   C829    1.300   .     A
O816   C830    1.300   .     A
O816   Al819   1.788   .     S
Al817  O3475   1.958   1_554 S
Al817  O3295   1.844   1_554 S
Al817  O3440   1.788   1_554 S
Al818  O836    1.844   .     S
Al819  O3499   1.958   1_554 S
Al819  O3519   1.844   1_554 S
Al819  O3432   1.788   1_554 S
Al820  O836    1.844   .     S
Al820  O826    1.844   .     S
O821   Al873   1.844   .     S
O821   Al875   1.844   .     S
C822   C824    1.500   .     S
C823   C825    1.500   .     S
O826   Al146   1.844   1_565 S
C827   C829    1.500   .     S
C828   C830    1.500   .     S
O831   Al1715  1.844   .     S
O831   Al1041  1.844   1_565 S
C832   C834    1.500   .     S
C833   C835    1.500   .     S
C837   C839    1.500   .     S
C838   C840    1.500   .     S
C841   C842    1.371   .     A
C841   C878    1.371   .     A
C842   C879    1.369   .     A
O843   Al1769  1.958   .     S
O843   C880    1.300   .     A
O844   C881    1.300   .     A
O844   Al874   1.788   .     S
C845   C846    1.371   .     A
C845   C883    1.371   .     A
C846   C884    1.369   .     A
O847   Al202   1.958   1_565 S
O847   C885    1.300   .     A
O848   C886    1.300   .     A
O848   Al201   1.788   1_565 S
C849   C850    1.371   .     A
C849   C888    1.371   .     A
C850   C889    1.369   .     A
O851   Al707   1.958   1_655 S
O851   C890    1.300   .     A
O852   C891    1.300   .     A
O852   Al876   1.788   .     S
C853   C854    1.371   .     A
C853   C893    1.371   .     A
C854   C894    1.369   .     A
O855   Al876   1.958   .     S
O855   C895    1.300   .     A
O856   C896    1.300   .     A
O856   Al1603  1.788   1_655 S
C857   C858    1.371   .     A
C857   C888    1.371   .     A
C858   C889    1.369   .     A
O859   Al33    1.958   1_665 S
O859   C890    1.300   .     A
O860   C891    1.300   .     A
O860   Al202   1.788   1_565 S
C861   C862    1.371   .     A
C861   C893    1.371   .     A
C862   C894    1.369   .     A
O863   Al874   1.958   .     S
O863   C895    1.300   .     A
O864   C896    1.300   .     A
O864   Al1601  1.788   1_655 S
C865   C866    1.371   .     A
C865   C878    1.371   .     A
C866   C879    1.369   .     A
O867   Al1771  1.958   .     S
O867   C880    1.300   .     A
O868   C881    1.300   .     A
O868   Al876   1.788   .     S
C869   C870    1.371   .     A
C869   C883    1.371   .     A
C870   C884    1.369   .     A
O871   Al876   1.958   .     S
O871   C885    1.300   .     A
O872   C886    1.300   .     A
O872   Al875   1.788   .     S
Al873  O3531   1.958   1_554 S
Al873  O3351   1.844   1_554 S
Al873  O3496   1.788   1_554 S
Al874  O892    1.844   .     S
Al875  O3555   1.958   1_554 S
Al875  O3575   1.844   1_554 S
Al875  O3488   1.788   1_554 S
Al876  O892    1.844   .     S
Al876  O882    1.844   .     S
O877   Al705   1.844   1_655 S
O877   Al707   1.844   1_655 S
C878   C880    1.500   .     S
C879   C881    1.500   .     S
O882   Al202   1.844   1_565 S
C883   C885    1.500   .     S
C884   C886    1.500   .     S
O887   Al1771  1.844   .     S
O887   Al1097  1.844   1_565 S
C888   C890    1.500   .     S
C889   C891    1.500   .     S
C893   C895    1.500   .     S
C894   C896    1.500   .     S
C897   C898    1.371   .     A
C897   C934    1.371   .     A
C898   C935    1.369   .     A
O899   Al1825  1.958   .     S
O899   C936    1.300   .     A
O900   C937    1.300   .     A
O900   Al930   1.788   .     S
C901   C902    1.371   .     A
C901   C939    1.371   .     A
C902   C940    1.369   .     A
O903   Al1154  1.958   .     S
O903   C941    1.300   .     A
O904   C942    1.300   .     A
O904   Al1153  1.788   .     S
C905   C906    1.371   .     A
C905   C944    1.371   .     A
C906   C945    1.369   .     A
O907   Al987   1.958   .     S
O907   C946    1.300   .     A
O908   C947    1.300   .     A
O908   Al932   1.788   .     S
C909   C910    1.371   .     A
C909   C949    1.371   .     A
C910   C950    1.369   .     A
O911   Al932   1.958   .     S
O911   C951    1.300   .     A
O912   C952    1.300   .     A
O912   Al1883  1.788   .     S
C913   C914    1.371   .     A
C913   C944    1.371   .     A
C914   C945    1.369   .     A
O915   Al1209  1.958   .     S
O915   C946    1.300   .     A
O916   C947    1.300   .     A
O916   Al1154  1.788   .     S
C917   C918    1.371   .     A
C917   C949    1.371   .     A
C918   C950    1.369   .     A
O919   Al930   1.958   .     S
O919   C951    1.300   .     A
O920   C952    1.300   .     A
O920   Al1881  1.788   .     S
C921   C922    1.371   .     A
C921   C934    1.371   .     A
C922   C935    1.369   .     A
O923   Al1827  1.958   .     S
O923   C936    1.300   .     A
O924   C937    1.300   .     A
O924   Al932   1.788   .     S
C925   C926    1.371   .     A
C925   C939    1.371   .     A
C926   C940    1.369   .     A
O927   Al932   1.958   .     S
O927   C941    1.300   .     A
O928   C942    1.300   .     A
O928   Al931   1.788   .     S
Al929  O1755   1.958   1_445 S
Al929  O1101   1.844   1_455 S
Al929  O719    1.844   1_545 S
Al929  O1576   1.788   1_545 S
Al929  O192    1.788   1_455 S
Al930  O1575   1.958   1_545 S
Al930  O1610   1.844   1_545 S
Al930  O948    1.844   .     S
Al930  O1588   1.788   1_545 S
Al931  O1075   1.958   1_455 S
Al931  O1101   1.844   1_455 S
Al931  O184    1.788   1_455 S
Al932  O948    1.844   .     S
Al932  O938    1.844   .     S
O933   Al985   1.844   .     S
O933   Al987   1.844   .     S
C934   C936    1.500   .     S
C935   C937    1.500   .     S
O938   Al1154  1.844   .     S
C939   C941    1.500   .     S
C940   C942    1.500   .     S
O943   Al1827  1.844   .     S
O943   Al2049  1.844   .     S
C944   C946    1.500   .     S
C945   C947    1.500   .     S
C949   C951    1.500   .     S
C950   C952    1.500   .     S
C953   C954    1.371   .     A
C953   C990    1.371   .     A
C954   C991    1.369   .     A
O955   Al1881  1.958   .     S
O955   C992    1.300   .     A
O956   C993    1.300   .     A
O956   Al986   1.788   .     S
C957   C958    1.371   .     A
C957   C995    1.371   .     A
C958   C996    1.369   .     A
O959   Al1210  1.958   .     S
O959   C997    1.300   .     A
O960   C998    1.300   .     A
O960   Al1209  1.788   .     S
C961   C962    1.371   .     A
C961   C1000   1.371   .     A
C962   C1001   1.369   .     A
O963   Al1043  1.958   .     S
O963   C1002   1.300   .     A
O964   C1003   1.300   .     A
O964   Al988   1.788   .     S
C965   C966    1.371   .     A
C965   C1005   1.371   .     A
C966   C1006   1.369   .     A
O967   Al988   1.958   .     S
O967   C1007   1.300   .     A
O968   C1008   1.300   .     A
O968   Al1939  1.788   .     S
C969   C970    1.371   .     A
C969   C1000   1.371   .     A
C970   C1001   1.369   .     A
O971   Al1265  1.958   .     S
O971   C1002   1.300   .     A
O972   C1003   1.300   .     A
O972   Al1210  1.788   .     S
C973   C974    1.371   .     A
C973   C1005   1.371   .     A
C974   C1006   1.369   .     A
O975   Al986   1.958   .     S
O975   C1007   1.300   .     A
O976   C1008   1.300   .     A
O976   Al1937  1.788   .     S
C977   C978    1.371   .     A
C977   C990    1.371   .     A
C978   C991    1.369   .     A
O979   Al1883  1.958   .     S
O979   C992    1.300   .     A
O980   C993    1.300   .     A
O980   Al988   1.788   .     S
C981   C982    1.371   .     A
C981   C995    1.371   .     A
C982   C996    1.369   .     A
O983   Al988   1.958   .     S
O983   C997    1.300   .     A
O984   C998    1.300   .     A
O984   Al987   1.788   .     S
Al985  O1587   1.958   1_545 S
Al985  O775    1.844   1_545 S
Al985  O1632   1.788   1_545 S
Al986  O1631   1.958   1_545 S
Al986  O1666   1.844   1_545 S
Al986  O1004   1.844   .     S
Al986  O1644   1.788   1_545 S
Al988  O1004   1.844   .     S
Al988  O994    1.844   .     S
O989   Al1041  1.844   .     S
O989   Al1043  1.844   .     S
C990   C992    1.500   .     S
C991   C993    1.500   .     S
O994   Al1210  1.844   .     S
C995   C997    1.500   .     S
C996   C998    1.500   .     S
O999   Al1883  1.844   .     S
O999   Al2105  1.844   .     S
C1000  C1002   1.500   .     S
C1001  C1003   1.500   .     S
C1005  C1007   1.500   .     S
C1006  C1008   1.500   .     S
C1009  C1010   1.371   .     A
C1009  C1046   1.371   .     A
C1010  C1047   1.369   .     A
O1011  Al1937  1.958   .     S
O1011  C1048   1.300   .     A
O1012  C1049   1.300   .     A
O1012  Al1042  1.788   .     S
C1013  C1014   1.371   .     A
C1013  C1051   1.371   .     A
C1014  C1052   1.369   .     A
O1015  Al1266  1.958   .     S
O1015  C1053   1.300   .     A
O1016  C1054   1.300   .     A
O1016  Al1265  1.788   .     S
C1017  C1018   1.371   .     A
C1017  C1056   1.371   .     A
C1018  C1057   1.369   .     A
O1019  Al1099  1.958   .     S
O1019  C1058   1.300   .     A
O1020  C1059   1.300   .     A
O1020  Al1044  1.788   .     S
C1021  C1022   1.371   .     A
C1021  C1061   1.371   .     A
C1022  C1062   1.369   .     A
O1023  Al1044  1.958   .     S
O1023  C1063   1.300   .     A
O1024  C1064   1.300   .     A
O1024  Al1995  1.788   .     S
C1025  C1026   1.371   .     A
C1025  C1056   1.371   .     A
C1026  C1057   1.369   .     A
O1027  Al1321  1.958   .     S
O1027  C1058   1.300   .     A
O1028  C1059   1.300   .     A
O1028  Al1266  1.788   .     S
C1029  C1030   1.371   .     A
C1029  C1061   1.371   .     A
C1030  C1062   1.369   .     A
O1031  Al1042  1.958   .     S
O1031  C1063   1.300   .     A
O1032  C1064   1.300   .     A
O1032  Al1993  1.788   .     S
C1033  C1034   1.371   .     A
C1033  C1046   1.371   .     A
C1034  C1047   1.369   .     A
O1035  Al1939  1.958   .     S
O1035  C1048   1.300   .     A
O1036  C1049   1.300   .     A
O1036  Al1044  1.788   .     S
C1037  C1038   1.371   .     A
C1037  C1051   1.371   .     A
C1038  C1052   1.369   .     A
O1039  Al1044  1.958   .     S
O1039  C1053   1.300   .     A
O1040  C1054   1.300   .     A
O1040  Al1043  1.788   .     S
Al1041 O1643   1.958   1_545 S
Al1041 O831    1.844   1_545 S
Al1041 O1688   1.788   1_545 S
Al1042 O1687   1.958   1_545 S
Al1042 O1722   1.844   1_545 S
Al1042 O1060   1.844   .     S
Al1042 O1700   1.788   1_545 S
Al1044 O1060   1.844   .     S
Al1044 O1050   1.844   .     S
O1045  Al1097  1.844   .     S
O1045  Al1099  1.844   .     S
C1046  C1048   1.500   .     S
C1047  C1049   1.500   .     S
O1050  Al1266  1.844   .     S
C1051  C1053   1.500   .     S
C1052  C1054   1.500   .     S
O1055  Al1939  1.844   .     S
O1055  Al2161  1.844   .     S
C1056  C1058   1.500   .     S
C1057  C1059   1.500   .     S
C1061  C1063   1.500   .     S
C1062  C1064   1.500   .     S
C1065  C1066   1.371   .     A
C1065  C1102   1.371   .     A
C1066  C1103   1.369   .     A
O1067  Al1993  1.958   .     S
O1067  C1104   1.300   .     A
O1068  C1105   1.300   .     A
O1068  Al1098  1.788   .     S
C1069  C1070   1.371   .     A
C1069  C1107   1.371   .     A
C1070  C1108   1.369   .     A
O1071  Al1322  1.958   .     S
O1071  C1109   1.300   .     A
O1072  C1110   1.300   .     A
O1072  Al1321  1.788   .     S
C1073  C1074   1.371   .     A
C1073  C1112   1.371   .     A
C1074  C1113   1.369   .     A
O1075  Al931   1.958   1_655 S
O1075  C1114   1.300   .     A
O1076  C1115   1.300   .     A
O1076  Al1100  1.788   .     S
C1077  C1078   1.371   .     A
C1077  C1117   1.371   .     A
C1078  C1118   1.369   .     A
O1079  Al1100  1.958   .     S
O1079  C1119   1.300   .     A
O1080  C1120   1.300   .     A
O1080  Al1827  1.788   1_655 S
C1081  C1082   1.371   .     A
C1081  C1112   1.371   .     A
C1082  C1113   1.369   .     A
O1083  Al1153  1.958   1_655 S
O1083  C1114   1.300   .     A
O1084  C1115   1.300   .     A
O1084  Al1322  1.788   .     S
C1085  C1086   1.371   .     A
C1085  C1117   1.371   .     A
C1086  C1118   1.369   .     A
O1087  Al1098  1.958   .     S
O1087  C1119   1.300   .     A
O1088  C1120   1.300   .     A
O1088  Al1825  1.788   1_655 S
C1089  C1090   1.371   .     A
C1089  C1102   1.371   .     A
C1090  C1103   1.369   .     A
O1091  Al1995  1.958   .     S
O1091  C1104   1.300   .     A
O1092  C1105   1.300   .     A
O1092  Al1100  1.788   .     S
C1093  C1094   1.371   .     A
C1093  C1107   1.371   .     A
C1094  C1108   1.369   .     A
O1095  Al1100  1.958   .     S
O1095  C1109   1.300   .     A
O1096  C1110   1.300   .     A
O1096  Al1099  1.788   .     S
Al1097 O1699   1.958   1_545 S
Al1097 O887    1.844   1_545 S
Al1097 O1744   1.788   1_545 S
Al1098 O1743   1.958   1_545 S
Al1098 O1778   1.844   1_545 S
Al1098 O1116   1.844   .     S
Al1098 O1756   1.788   1_545 S
Al1100 O1116   1.844   .     S
Al1100 O1106   1.844   .     S
O1101  Al929   1.844   1_655 S
O1101  Al931   1.844   1_655 S
C1102  C1104   1.500   .     S
C1103  C1105   1.500   .     S
O1106  Al1322  1.844   .     S
C1107  C1109   1.500   .     S
C1108  C1110   1.500   .     S
O1111  Al1995  1.844   .     S
O1111  Al2217  1.844   .     S
C1112  C1114   1.500   .     S
C1113  C1115   1.500   .     S
C1117  C1119   1.500   .     S
C1118  C1120   1.500   .     S
C1121  C1122   1.371   .     A
C1121  C1158   1.371   .     A
C1122  C1159   1.369   .     A
O1123  Al2049  1.958   .     S
O1123  C1160   1.300   .     A
O1124  C1161   1.300   .     A
O1124  Al1154  1.788   .     S
C1125  C1126   1.371   .     A
C1125  C1163   1.371   .     A
C1126  C1164   1.369   .     A
O1127  Al1378  1.958   .     S
O1127  C1165   1.300   .     A
O1128  C1166   1.300   .     A
O1128  Al1377  1.788   .     S
C1129  C1130   1.371   .     A
C1129  C1168   1.371   .     A
C1130  C1169   1.369   .     A
O1131  Al1211  1.958   .     S
O1131  C1170   1.300   .     A
O1132  C1171   1.300   .     A
O1132  Al1156  1.788   .     S
C1133  C1134   1.371   .     A
C1133  C1173   1.371   .     A
C1134  C1174   1.369   .     A
O1135  Al1156  1.958   .     S
O1135  C1175   1.300   .     A
O1136  C1176   1.300   .     A
O1136  Al2107  1.788   .     S
C1137  C1138   1.371   .     A
C1137  C1168   1.371   .     A
C1138  C1169   1.369   .     A
O1139  Al1433  1.958   .     S
O1139  C1170   1.300   .     A
O1140  C1171   1.300   .     A
O1140  Al1378  1.788   .     S
C1141  C1142   1.371   .     A
C1141  C1173   1.371   .     A
C1142  C1174   1.369   .     A
O1143  Al1154  1.958   .     S
O1143  C1175   1.300   .     A
O1144  C1176   1.300   .     A
O1144  Al2105  1.788   .     S
C1145  C1146   1.371   .     A
C1145  C1158   1.371   .     A
C1146  C1159   1.369   .     A
O1147  Al2051  1.958   .     S
O1147  C1160   1.300   .     A
O1148  C1161   1.300   .     A
O1148  Al1156  1.788   .     S
C1149  C1150   1.371   .     A
C1149  C1163   1.371   .     A
C1150  C1164   1.369   .     A
O1151  Al1156  1.958   .     S
O1151  C1165   1.300   .     A
O1152  C1166   1.300   .     A
O1152  Al1155  1.788   .     S
Al1153 O1083   1.958   1_455 S
Al1153 O1325   1.844   1_455 S
Al1153 O416    1.788   1_455 S
Al1154 O1172   1.844   .     S
Al1155 O1299   1.958   1_455 S
Al1155 O1325   1.844   1_455 S
Al1155 O408    1.788   1_455 S
Al1156 O1172   1.844   .     S
Al1156 O1162   1.844   .     S
O1157  Al1209  1.844   .     S
O1157  Al1211  1.844   .     S
C1158  C1160   1.500   .     S
C1159  C1161   1.500   .     S
O1162  Al1378  1.844   .     S
C1163  C1165   1.500   .     S
C1164  C1166   1.500   .     S
O1167  Al2051  1.844   .     S
O1167  Al2273  1.844   .     S
C1168  C1170   1.500   .     S
C1169  C1171   1.500   .     S
C1173  C1175   1.500   .     S
C1174  C1176   1.500   .     S
C1177  C1178   1.371   .     A
C1177  C1214   1.371   .     A
C1178  C1215   1.369   .     A
O1179  Al2105  1.958   .     S
O1179  C1216   1.300   .     A
O1180  C1217   1.300   .     A
O1180  Al1210  1.788   .     S
C1181  C1182   1.371   .     A
C1181  C1219   1.371   .     A
C1182  C1220   1.369   .     A
O1183  Al1434  1.958   .     S
O1183  C1221   1.300   .     A
O1184  C1222   1.300   .     A
O1184  Al1433  1.788   .     S
C1185  C1186   1.371   .     A
C1185  C1224   1.371   .     A
C1186  C1225   1.369   .     A
O1187  Al1267  1.958   .     S
O1187  C1226   1.300   .     A
O1188  C1227   1.300   .     A
O1188  Al1212  1.788   .     S
C1189  C1190   1.371   .     A
C1189  C1229   1.371   .     A
C1190  C1230   1.369   .     A
O1191  Al1212  1.958   .     S
O1191  C1231   1.300   .     A
O1192  C1232   1.300   .     A
O1192  Al2163  1.788   .     S
C1193  C1194   1.371   .     A
C1193  C1224   1.371   .     A
C1194  C1225   1.369   .     A
O1195  Al1489  1.958   .     S
O1195  C1226   1.300   .     A
O1196  C1227   1.300   .     A
O1196  Al1434  1.788   .     S
C1197  C1198   1.371   .     A
C1197  C1229   1.371   .     A
C1198  C1230   1.369   .     A
O1199  Al1210  1.958   .     S
O1199  C1231   1.300   .     A
O1200  C1232   1.300   .     A
O1200  Al2161  1.788   .     S
C1201  C1202   1.371   .     A
C1201  C1214   1.371   .     A
C1202  C1215   1.369   .     A
O1203  Al2107  1.958   .     S
O1203  C1216   1.300   .     A
O1204  C1217   1.300   .     A
O1204  Al1212  1.788   .     S
C1205  C1206   1.371   .     A
C1205  C1219   1.371   .     A
C1206  C1220   1.369   .     A
O1207  Al1212  1.958   .     S
O1207  C1221   1.300   .     A
O1208  C1222   1.300   .     A
O1208  Al1211  1.788   .     S
Al1210 O1228   1.844   .     S
Al1212 O1228   1.844   .     S
Al1212 O1218   1.844   .     S
O1213  Al1265  1.844   .     S
O1213  Al1267  1.844   .     S
C1214  C1216   1.500   .     S
C1215  C1217   1.500   .     S
O1218  Al1434  1.844   .     S
C1219  C1221   1.500   .     S
C1220  C1222   1.500   .     S
O1223  Al2107  1.844   .     S
O1223  Al2329  1.844   .     S
C1224  C1226   1.500   .     S
C1225  C1227   1.500   .     S
C1229  C1231   1.500   .     S
C1230  C1232   1.500   .     S
C1233  C1234   1.371   .     A
C1233  C1270   1.371   .     A
C1234  C1271   1.369   .     A
O1235  Al2161  1.958   .     S
O1235  C1272   1.300   .     A
O1236  C1273   1.300   .     A
O1236  Al1266  1.788   .     S
C1237  C1238   1.371   .     A
C1237  C1275   1.371   .     A
C1238  C1276   1.369   .     A
O1239  Al1490  1.958   .     S
O1239  C1277   1.300   .     A
O1240  C1278   1.300   .     A
O1240  Al1489  1.788   .     S
C1241  C1242   1.371   .     A
C1241  C1280   1.371   .     A
C1242  C1281   1.369   .     A
O1243  Al1323  1.958   .     S
O1243  C1282   1.300   .     A
O1244  C1283   1.300   .     A
O1244  Al1268  1.788   .     S
C1245  C1246   1.371   .     A
C1245  C1285   1.371   .     A
C1246  C1286   1.369   .     A
O1247  Al1268  1.958   .     S
O1247  C1287   1.300   .     A
O1248  C1288   1.300   .     A
O1248  Al2219  1.788   .     S
C1249  C1250   1.371   .     A
C1249  C1280   1.371   .     A
C1250  C1281   1.369   .     A
O1251  Al1545  1.958   .     S
O1251  C1282   1.300   .     A
O1252  C1283   1.300   .     A
O1252  Al1490  1.788   .     S
C1253  C1254   1.371   .     A
C1253  C1285   1.371   .     A
C1254  C1286   1.369   .     A
O1255  Al1266  1.958   .     S
O1255  C1287   1.300   .     A
O1256  C1288   1.300   .     A
O1256  Al2217  1.788   .     S
C1257  C1258   1.371   .     A
C1257  C1270   1.371   .     A
C1258  C1271   1.369   .     A
O1259  Al2163  1.958   .     S
O1259  C1272   1.300   .     A
O1260  C1273   1.300   .     A
O1260  Al1268  1.788   .     S
C1261  C1262   1.371   .     A
C1261  C1275   1.371   .     A
C1262  C1276   1.369   .     A
O1263  Al1268  1.958   .     S
O1263  C1277   1.300   .     A
O1264  C1278   1.300   .     A
O1264  Al1267  1.788   .     S
Al1266 O1284   1.844   .     S
Al1268 O1284   1.844   .     S
Al1268 O1274   1.844   .     S
O1269  Al1321  1.844   .     S
O1269  Al1323  1.844   .     S
C1270  C1272   1.500   .     S
C1271  C1273   1.500   .     S
O1274  Al1490  1.844   .     S
C1275  C1277   1.500   .     S
C1276  C1278   1.500   .     S
O1279  Al2163  1.844   .     S
O1279  Al2385  1.844   .     S
C1280  C1282   1.500   .     S
C1281  C1283   1.500   .     S
C1285  C1287   1.500   .     S
C1286  C1288   1.500   .     S
C1289  C1290   1.371   .     A
C1289  C1326   1.371   .     A
C1290  C1327   1.369   .     A
O1291  Al2217  1.958   .     S
O1291  C1328   1.300   .     A
O1292  C1329   1.300   .     A
O1292  Al1322  1.788   .     S
C1293  C1294   1.371   .     A
C1293  C1331   1.371   .     A
C1294  C1332   1.369   .     A
O1295  Al1546  1.958   .     S
O1295  C1333   1.300   .     A
O1296  C1334   1.300   .     A
O1296  Al1545  1.788   .     S
C1297  C1298   1.371   .     A
C1297  C1336   1.371   .     A
C1298  C1337   1.369   .     A
O1299  Al1155  1.958   1_655 S
O1299  C1338   1.300   .     A
O1300  C1339   1.300   .     A
O1300  Al1324  1.788   .     S
C1301  C1302   1.371   .     A
C1301  C1341   1.371   .     A
C1302  C1342   1.369   .     A
O1303  Al1324  1.958   .     S
O1303  C1343   1.300   .     A
O1304  C1344   1.300   .     A
O1304  Al2051  1.788   1_655 S
C1305  C1306   1.371   .     A
C1305  C1336   1.371   .     A
C1306  C1337   1.369   .     A
O1307  Al1377  1.958   1_655 S
O1307  C1338   1.300   .     A
O1308  C1339   1.300   .     A
O1308  Al1546  1.788   .     S
C1309  C1310   1.371   .     A
C1309  C1341   1.371   .     A
C1310  C1342   1.369   .     A
O1311  Al1322  1.958   .     S
O1311  C1343   1.300   .     A
O1312  C1344   1.300   .     A
O1312  Al2049  1.788   1_655 S
C1313  C1314   1.371   .     A
C1313  C1326   1.371   .     A
C1314  C1327   1.369   .     A
O1315  Al2219  1.958   .     S
O1315  C1328   1.300   .     A
O1316  C1329   1.300   .     A
O1316  Al1324  1.788   .     S
C1317  C1318   1.371   .     A
C1317  C1331   1.371   .     A
C1318  C1332   1.369   .     A
O1319  Al1324  1.958   .     S
O1319  C1333   1.300   .     A
O1320  C1334   1.300   .     A
O1320  Al1323  1.788   .     S
Al1322 O1340   1.844   .     S
Al1324 O1340   1.844   .     S
Al1324 O1330   1.844   .     S
O1325  Al1153  1.844   1_655 S
O1325  Al1155  1.844   1_655 S
C1326  C1328   1.500   .     S
C1327  C1329   1.500   .     S
O1330  Al1546  1.844   .     S
C1331  C1333   1.500   .     S
C1332  C1334   1.500   .     S
O1335  Al2219  1.844   .     S
O1335  Al2441  1.844   .     S
C1336  C1338   1.500   .     S
C1337  C1339   1.500   .     S
C1341  C1343   1.500   .     S
C1342  C1344   1.500   .     S
C1345  C1346   1.371   .     A
C1345  C1382   1.371   .     A
C1346  C1383   1.369   .     A
O1347  Al2273  1.958   .     S
O1347  C1384   1.300   .     A
O1348  C1385   1.300   .     A
O1348  Al1378  1.788   .     S
C1349  C1350   1.371   .     A
C1349  C1387   1.371   .     A
C1350  C1388   1.369   .     A
O1351  Al1602  1.958   .     S
O1351  C1389   1.300   .     A
O1352  C1390   1.300   .     A
O1352  Al1601  1.788   .     S
C1353  C1354   1.371   .     A
C1353  C1392   1.371   .     A
C1354  C1393   1.369   .     A
O1355  Al1435  1.958   .     S
O1355  C1394   1.300   .     A
O1356  C1395   1.300   .     A
O1356  Al1380  1.788   .     S
C1357  C1358   1.371   .     A
C1357  C1397   1.371   .     A
C1358  C1398   1.369   .     A
O1359  Al1380  1.958   .     S
O1359  C1399   1.300   .     A
O1360  C1400   1.300   .     A
O1360  Al2331  1.788   .     S
C1361  C1362   1.371   .     A
C1361  C1392   1.371   .     A
C1362  C1393   1.369   .     A
O1363  Al1657  1.958   .     S
O1363  C1394   1.300   .     A
O1364  C1395   1.300   .     A
O1364  Al1602  1.788   .     S
C1365  C1366   1.371   .     A
C1365  C1397   1.371   .     A
C1366  C1398   1.369   .     A
O1367  Al1378  1.958   .     S
O1367  C1399   1.300   .     A
O1368  C1400   1.300   .     A
O1368  Al2329  1.788   .     S
C1369  C1370   1.371   .     A
C1369  C1382   1.371   .     A
C1370  C1383   1.369   .     A
O1371  Al2275  1.958   .     S
O1371  C1384   1.300   .     A
O1372  C1385   1.300   .     A
O1372  Al1380  1.788   .     S
C1373  C1374   1.371   .     A
C1373  C1387   1.371   .     A
C1374  C1388   1.369   .     A
O1375  Al1380  1.958   .     S
O1375  C1389   1.300   .     A
O1376  C1390   1.300   .     A
O1376  Al1379  1.788   .     S
Al1377 O1307   1.958   1_455 S
Al1377 O1549   1.844   1_455 S
Al1377 O640    1.788   1_455 S
Al1378 O1396   1.844   .     S
Al1379 O1523   1.958   1_455 S
Al1379 O1549   1.844   1_455 S
Al1379 O632    1.788   1_455 S
Al1380 O1396   1.844   .     S
Al1380 O1386   1.844   .     S
O1381  Al1433  1.844   .     S
O1381  Al1435  1.844   .     S
C1382  C1384   1.500   .     S
C1383  C1385   1.500   .     S
O1386  Al1602  1.844   .     S
C1387  C1389   1.500   .     S
C1388  C1390   1.500   .     S
O1391  Al2275  1.844   .     S
O1391  Al2497  1.844   .     S
C1392  C1394   1.500   .     S
C1393  C1395   1.500   .     S
C1397  C1399   1.500   .     S
C1398  C1400   1.500   .     S
C1401  C1402   1.371   .     A
C1401  C1438   1.371   .     A
C1402  C1439   1.369   .     A
O1403  Al2329  1.958   .     S
O1403  C1440   1.300   .     A
O1404  C1441   1.300   .     A
O1404  Al1434  1.788   .     S
C1405  C1406   1.371   .     A
C1405  C1443   1.371   .     A
C1406  C1444   1.369   .     A
O1407  Al1658  1.958   .     S
O1407  C1445   1.300   .     A
O1408  C1446   1.300   .     A
O1408  Al1657  1.788   .     S
C1409  C1410   1.371   .     A
C1409  C1448   1.371   .     A
C1410  C1449   1.369   .     A
O1411  Al1491  1.958   .     S
O1411  C1450   1.300   .     A
O1412  C1451   1.300   .     A
O1412  Al1436  1.788   .     S
C1413  C1414   1.371   .     A
C1413  C1453   1.371   .     A
C1414  C1454   1.369   .     A
O1415  Al1436  1.958   .     S
O1415  C1455   1.300   .     A
O1416  C1456   1.300   .     A
O1416  Al2387  1.788   .     S
C1417  C1418   1.371   .     A
C1417  C1448   1.371   .     A
C1418  C1449   1.369   .     A
O1419  Al1713  1.958   .     S
O1419  C1450   1.300   .     A
O1420  C1451   1.300   .     A
O1420  Al1658  1.788   .     S
C1421  C1422   1.371   .     A
C1421  C1453   1.371   .     A
C1422  C1454   1.369   .     A
O1423  Al1434  1.958   .     S
O1423  C1455   1.300   .     A
O1424  C1456   1.300   .     A
O1424  Al2385  1.788   .     S
C1425  C1426   1.371   .     A
C1425  C1438   1.371   .     A
C1426  C1439   1.369   .     A
O1427  Al2331  1.958   .     S
O1427  C1440   1.300   .     A
O1428  C1441   1.300   .     A
O1428  Al1436  1.788   .     S
C1429  C1430   1.371   .     A
C1429  C1443   1.371   .     A
C1430  C1444   1.369   .     A
O1431  Al1436  1.958   .     S
O1431  C1445   1.300   .     A
O1432  C1446   1.300   .     A
O1432  Al1435  1.788   .     S
Al1434 O1452   1.844   .     S
Al1436 O1452   1.844   .     S
Al1436 O1442   1.844   .     S
O1437  Al1489  1.844   .     S
O1437  Al1491  1.844   .     S
C1438  C1440   1.500   .     S
C1439  C1441   1.500   .     S
O1442  Al1658  1.844   .     S
C1443  C1445   1.500   .     S
C1444  C1446   1.500   .     S
O1447  Al2331  1.844   .     S
O1447  Al2553  1.844   .     S
C1448  C1450   1.500   .     S
C1449  C1451   1.500   .     S
C1453  C1455   1.500   .     S
C1454  C1456   1.500   .     S
C1457  C1458   1.371   .     A
C1457  C1494   1.371   .     A
C1458  C1495   1.369   .     A
O1459  Al2385  1.958   .     S
O1459  C1496   1.300   .     A
O1460  C1497   1.300   .     A
O1460  Al1490  1.788   .     S
C1461  C1462   1.371   .     A
C1461  C1499   1.371   .     A
C1462  C1500   1.369   .     A
O1463  Al1714  1.958   .     S
O1463  C1501   1.300   .     A
O1464  C1502   1.300   .     A
O1464  Al1713  1.788   .     S
C1465  C1466   1.371   .     A
C1465  C1504   1.371   .     A
C1466  C1505   1.369   .     A
O1467  Al1547  1.958   .     S
O1467  C1506   1.300   .     A
O1468  C1507   1.300   .     A
O1468  Al1492  1.788   .     S
C1469  C1470   1.371   .     A
C1469  C1509   1.371   .     A
C1470  C1510   1.369   .     A
O1471  Al1492  1.958   .     S
O1471  C1511   1.300   .     A
O1472  C1512   1.300   .     A
O1472  Al2443  1.788   .     S
C1473  C1474   1.371   .     A
C1473  C1504   1.371   .     A
C1474  C1505   1.369   .     A
O1475  Al1769  1.958   .     S
O1475  C1506   1.300   .     A
O1476  C1507   1.300   .     A
O1476  Al1714  1.788   .     S
C1477  C1478   1.371   .     A
C1477  C1509   1.371   .     A
C1478  C1510   1.369   .     A
O1479  Al1490  1.958   .     S
O1479  C1511   1.300   .     A
O1480  C1512   1.300   .     A
O1480  Al2441  1.788   .     S
C1481  C1482   1.371   .     A
C1481  C1494   1.371   .     A
C1482  C1495   1.369   .     A
O1483  Al2387  1.958   .     S
O1483  C1496   1.300   .     A
O1484  C1497   1.300   .     A
O1484  Al1492  1.788   .     S
C1485  C1486   1.371   .     A
C1485  C1499   1.371   .     A
C1486  C1500   1.369   .     A
O1487  Al1492  1.958   .     S
O1487  C1501   1.300   .     A
O1488  C1502   1.300   .     A
O1488  Al1491  1.788   .     S
Al1490 O1508   1.844   .     S
Al1492 O1508   1.844   .     S
Al1492 O1498   1.844   .     S
O1493  Al1545  1.844   .     S
O1493  Al1547  1.844   .     S
C1494  C1496   1.500   .     S
C1495  C1497   1.500   .     S
O1498  Al1714  1.844   .     S
C1499  C1501   1.500   .     S
C1500  C1502   1.500   .     S
O1503  Al2387  1.844   .     S
O1503  Al2609  1.844   .     S
C1504  C1506   1.500   .     S
C1505  C1507   1.500   .     S
C1509  C1511   1.500   .     S
C1510  C1512   1.500   .     S
C1513  C1514   1.371   .     A
C1513  C1550   1.371   .     A
C1514  C1551   1.369   .     A
O1515  Al2441  1.958   .     S
O1515  C1552   1.300   .     A
O1516  C1553   1.300   .     A
O1516  Al1546  1.788   .     S
C1517  C1518   1.371   .     A
C1517  C1555   1.371   .     A
C1518  C1556   1.369   .     A
O1519  Al1770  1.958   .     S
O1519  C1557   1.300   .     A
O1520  C1558   1.300   .     A
O1520  Al1769  1.788   .     S
C1521  C1522   1.371   .     A
C1521  C1560   1.371   .     A
C1522  C1561   1.369   .     A
O1523  Al1379  1.958   1_655 S
O1523  C1562   1.300   .     A
O1524  C1563   1.300   .     A
O1524  Al1548  1.788   .     S
C1525  C1526   1.371   .     A
C1525  C1565   1.371   .     A
C1526  C1566   1.369   .     A
O1527  Al1548  1.958   .     S
O1527  C1567   1.300   .     A
O1528  C1568   1.300   .     A
O1528  Al2275  1.788   1_655 S
C1529  C1530   1.371   .     A
C1529  C1560   1.371   .     A
C1530  C1561   1.369   .     A
O1531  Al1601  1.958   1_655 S
O1531  C1562   1.300   .     A
O1532  C1563   1.300   .     A
O1532  Al1770  1.788   .     S
C1533  C1534   1.371   .     A
C1533  C1565   1.371   .     A
C1534  C1566   1.369   .     A
O1535  Al1546  1.958   .     S
O1535  C1567   1.300   .     A
O1536  C1568   1.300   .     A
O1536  Al2273  1.788   1_655 S
C1537  C1538   1.371   .     A
C1537  C1550   1.371   .     A
C1538  C1551   1.369   .     A
O1539  Al2443  1.958   .     S
O1539  C1552   1.300   .     A
O1540  C1553   1.300   .     A
O1540  Al1548  1.788   .     S
C1541  C1542   1.371   .     A
C1541  C1555   1.371   .     A
C1542  C1556   1.369   .     A
O1543  Al1548  1.958   .     S
O1543  C1557   1.300   .     A
O1544  C1558   1.300   .     A
O1544  Al1547  1.788   .     S
Al1546 O1564   1.844   .     S
Al1548 O1564   1.844   .     S
Al1548 O1554   1.844   .     S
O1549  Al1377  1.844   1_655 S
O1549  Al1379  1.844   1_655 S
C1550  C1552   1.500   .     S
C1551  C1553   1.500   .     S
O1554  Al1770  1.844   .     S
C1555  C1557   1.500   .     S
C1556  C1558   1.500   .     S
O1559  Al2443  1.844   .     S
O1559  Al2665  1.844   .     S
C1560  C1562   1.500   .     S
C1561  C1563   1.500   .     S
C1565  C1567   1.500   .     S
C1566  C1568   1.500   .     S
C1569  C1570   1.371   .     A
C1569  C1606   1.371   .     A
C1570  C1607   1.369   .     A
O1571  Al2497  1.958   .     S
O1571  C1608   1.300   .     A
O1572  C1609   1.300   .     A
O1572  Al1602  1.788   .     S
C1573  C1574   1.371   .     A
C1573  C1611   1.371   .     A
C1574  C1612   1.369   .     A
O1575  Al930   1.958   1_565 S
O1575  C1613   1.300   .     A
O1576  C1614   1.300   .     A
O1576  Al929   1.788   1_565 S
C1577  C1578   1.371   .     A
C1577  C1616   1.371   .     A
C1578  C1617   1.369   .     A
O1579  Al1659  1.958   .     S
O1579  C1618   1.300   .     A
O1580  C1619   1.300   .     A
O1580  Al1604  1.788   .     S
C1581  C1582   1.371   .     A
C1581  C1621   1.371   .     A
C1582  C1622   1.369   .     A
O1583  Al1604  1.958   .     S
O1583  C1623   1.300   .     A
O1584  C1624   1.300   .     A
O1584  Al2555  1.788   .     S
C1585  C1586   1.371   .     A
C1585  C1616   1.371   .     A
C1586  C1617   1.369   .     A
O1587  Al985   1.958   1_565 S
O1587  C1618   1.300   .     A
O1588  C1619   1.300   .     A
O1588  Al930   1.788   1_565 S
C1589  C1590   1.371   .     A
C1589  C1621   1.371   .     A
C1590  C1622   1.369   .     A
O1591  Al1602  1.958   .     S
O1591  C1623   1.300   .     A
O1592  C1624   1.300   .     A
O1592  Al2553  1.788   .     S
C1593  C1594   1.371   .     A
C1593  C1606   1.371   .     A
C1594  C1607   1.369   .     A
O1595  Al2499  1.958   .     S
O1595  C1608   1.300   .     A
O1596  C1609   1.300   .     A
O1596  Al1604  1.788   .     S
C1597  C1598   1.371   .     A
C1597  C1611   1.371   .     A
C1598  C1612   1.369   .     A
O1599  Al1604  1.958   .     S
O1599  C1613   1.300   .     A
O1600  C1614   1.300   .     A
O1600  Al1603  1.788   .     S
Al1601 O1531   1.958   1_455 S
Al1601 O1773   1.844   1_455 S
Al1601 O864    1.788   1_455 S
Al1602 O1620   1.844   .     S
Al1603 O1747   1.958   1_455 S
Al1603 O1773   1.844   1_455 S
Al1603 O856    1.788   1_455 S
Al1604 O1620   1.844   .     S
Al1604 O1610   1.844   .     S
O1605  Al1657  1.844   .     S
O1605  Al1659  1.844   .     S
C1606  C1608   1.500   .     S
C1607  C1609   1.500   .     S
O1610  Al930   1.844   1_565 S
C1611  C1613   1.500   .     S
C1612  C1614   1.500   .     S
O1615  Al2499  1.844   .     S
O1615  Al1825  1.844   1_565 S
C1616  C1618   1.500   .     S
C1617  C1619   1.500   .     S
C1621  C1623   1.500   .     S
C1622  C1624   1.500   .     S
C1625  C1626   1.371   .     A
C1625  C1662   1.371   .     A
C1626  C1663   1.369   .     A
O1627  Al2553  1.958   .     S
O1627  C1664   1.300   .     A
O1628  C1665   1.300   .     A
O1628  Al1658  1.788   .     S
C1629  C1630   1.371   .     A
C1629  C1667   1.371   .     A
C1630  C1668   1.369   .     A
O1631  Al986   1.958   1_565 S
O1631  C1669   1.300   .     A
O1632  C1670   1.300   .     A
O1632  Al985   1.788   1_565 S
C1633  C1634   1.371   .     A
C1633  C1672   1.371   .     A
C1634  C1673   1.369   .     A
O1635  Al1715  1.958   .     S
O1635  C1674   1.300   .     A
O1636  C1675   1.300   .     A
O1636  Al1660  1.788   .     S
C1637  C1638   1.371   .     A
C1637  C1677   1.371   .     A
C1638  C1678   1.369   .     A
O1639  Al1660  1.958   .     S
O1639  C1679   1.300   .     A
O1640  C1680   1.300   .     A
O1640  Al2611  1.788   .     S
C1641  C1642   1.371   .     A
C1641  C1672   1.371   .     A
C1642  C1673   1.369   .     A
O1643  Al1041  1.958   1_565 S
O1643  C1674   1.300   .     A
O1644  C1675   1.300   .     A
O1644  Al986   1.788   1_565 S
C1645  C1646   1.371   .     A
C1645  C1677   1.371   .     A
C1646  C1678   1.369   .     A
O1647  Al1658  1.958   .     S
O1647  C1679   1.300   .     A
O1648  C1680   1.300   .     A
O1648  Al2609  1.788   .     S
C1649  C1650   1.371   .     A
C1649  C1662   1.371   .     A
C1650  C1663   1.369   .     A
O1651  Al2555  1.958   .     S
O1651  C1664   1.300   .     A
O1652  C1665   1.300   .     A
O1652  Al1660  1.788   .     S
C1653  C1654   1.371   .     A
C1653  C1667   1.371   .     A
C1654  C1668   1.369   .     A
O1655  Al1660  1.958   .     S
O1655  C1669   1.300   .     A
O1656  C1670   1.300   .     A
O1656  Al1659  1.788   .     S
Al1658 O1676   1.844   .     S
Al1660 O1676   1.844   .     S
Al1660 O1666   1.844   .     S
O1661  Al1713  1.844   .     S
O1661  Al1715  1.844   .     S
C1662  C1664   1.500   .     S
C1663  C1665   1.500   .     S
O1666  Al986   1.844   1_565 S
C1667  C1669   1.500   .     S
C1668  C1670   1.500   .     S
O1671  Al2555  1.844   .     S
O1671  Al1881  1.844   1_565 S
C1672  C1674   1.500   .     S
C1673  C1675   1.500   .     S
C1677  C1679   1.500   .     S
C1678  C1680   1.500   .     S
C1681  C1682   1.371   .     A
C1681  C1718   1.371   .     A
C1682  C1719   1.369   .     A
O1683  Al2609  1.958   .     S
O1683  C1720   1.300   .     A
O1684  C1721   1.300   .     A
O1684  Al1714  1.788   .     S
C1685  C1686   1.371   .     A
C1685  C1723   1.371   .     A
C1686  C1724   1.369   .     A
O1687  Al1042  1.958   1_565 S
O1687  C1725   1.300   .     A
O1688  C1726   1.300   .     A
O1688  Al1041  1.788   1_565 S
C1689  C1690   1.371   .     A
C1689  C1728   1.371   .     A
C1690  C1729   1.369   .     A
O1691  Al1771  1.958   .     S
O1691  C1730   1.300   .     A
O1692  C1731   1.300   .     A
O1692  Al1716  1.788   .     S
C1693  C1694   1.371   .     A
C1693  C1733   1.371   .     A
C1694  C1734   1.369   .     A
O1695  Al1716  1.958   .     S
O1695  C1735   1.300   .     A
O1696  C1736   1.300   .     A
O1696  Al2667  1.788   .     S
C1697  C1698   1.371   .     A
C1697  C1728   1.371   .     A
C1698  C1729   1.369   .     A
O1699  Al1097  1.958   1_565 S
O1699  C1730   1.300   .     A
O1700  C1731   1.300   .     A
O1700  Al1042  1.788   1_565 S
C1701  C1702   1.371   .     A
C1701  C1733   1.371   .     A
C1702  C1734   1.369   .     A
O1703  Al1714  1.958   .     S
O1703  C1735   1.300   .     A
O1704  C1736   1.300   .     A
O1704  Al2665  1.788   .     S
C1705  C1706   1.371   .     A
C1705  C1718   1.371   .     A
C1706  C1719   1.369   .     A
O1707  Al2611  1.958   .     S
O1707  C1720   1.300   .     A
O1708  C1721   1.300   .     A
O1708  Al1716  1.788   .     S
C1709  C1710   1.371   .     A
C1709  C1723   1.371   .     A
C1710  C1724   1.369   .     A
O1711  Al1716  1.958   .     S
O1711  C1725   1.300   .     A
O1712  C1726   1.300   .     A
O1712  Al1715  1.788   .     S
Al1714 O1732   1.844   .     S
Al1716 O1732   1.844   .     S
Al1716 O1722   1.844   .     S
O1717  Al1769  1.844   .     S
O1717  Al1771  1.844   .     S
C1718  C1720   1.500   .     S
C1719  C1721   1.500   .     S
O1722  Al1042  1.844   1_565 S
C1723  C1725   1.500   .     S
C1724  C1726   1.500   .     S
O1727  Al2611  1.844   .     S
O1727  Al1937  1.844   1_565 S
C1728  C1730   1.500   .     S
C1729  C1731   1.500   .     S
C1733  C1735   1.500   .     S
C1734  C1736   1.500   .     S
C1737  C1738   1.371   .     A
C1737  C1774   1.371   .     A
C1738  C1775   1.369   .     A
O1739  Al2665  1.958   .     S
O1739  C1776   1.300   .     A
O1740  C1777   1.300   .     A
O1740  Al1770  1.788   .     S
C1741  C1742   1.371   .     A
C1741  C1779   1.371   .     A
C1742  C1780   1.369   .     A
O1743  Al1098  1.958   1_565 S
O1743  C1781   1.300   .     A
O1744  C1782   1.300   .     A
O1744  Al1097  1.788   1_565 S
C1745  C1746   1.371   .     A
C1745  C1784   1.371   .     A
C1746  C1785   1.369   .     A
O1747  Al1603  1.958   1_655 S
O1747  C1786   1.300   .     A
O1748  C1787   1.300   .     A
O1748  Al1772  1.788   .     S
C1749  C1750   1.371   .     A
C1749  C1789   1.371   .     A
C1750  C1790   1.369   .     A
O1751  Al1772  1.958   .     S
O1751  C1791   1.300   .     A
O1752  C1792   1.300   .     A
O1752  Al2499  1.788   1_655 S
C1753  C1754   1.371   .     A
C1753  C1784   1.371   .     A
C1754  C1785   1.369   .     A
O1755  Al929   1.958   1_665 S
O1755  C1786   1.300   .     A
O1756  C1787   1.300   .     A
O1756  Al1098  1.788   1_565 S
C1757  C1758   1.371   .     A
C1757  C1789   1.371   .     A
C1758  C1790   1.369   .     A
O1759  Al1770  1.958   .     S
O1759  C1791   1.300   .     A
O1760  C1792   1.300   .     A
O1760  Al2497  1.788   1_655 S
C1761  C1762   1.371   .     A
C1761  C1774   1.371   .     A
C1762  C1775   1.369   .     A
O1763  Al2667  1.958   .     S
O1763  C1776   1.300   .     A
O1764  C1777   1.300   .     A
O1764  Al1772  1.788   .     S
C1765  C1766   1.371   .     A
C1765  C1779   1.371   .     A
C1766  C1780   1.369   .     A
O1767  Al1772  1.958   .     S
O1767  C1781   1.300   .     A
O1768  C1782   1.300   .     A
O1768  Al1771  1.788   .     S
Al1770 O1788   1.844   .     S
Al1772 O1788   1.844   .     S
Al1772 O1778   1.844   .     S
O1773  Al1601  1.844   1_655 S
O1773  Al1603  1.844   1_655 S
C1774  C1776   1.500   .     S
C1775  C1777   1.500   .     S
O1778  Al1098  1.844   1_565 S
C1779  C1781   1.500   .     S
C1780  C1782   1.500   .     S
O1783  Al2667  1.844   .     S
O1783  Al1993  1.844   1_565 S
C1784  C1786   1.500   .     S
C1785  C1787   1.500   .     S
C1789  C1791   1.500   .     S
C1790  C1792   1.500   .     S
C1793  C1794   1.371   .     A
C1793  C1830   1.371   .     A
C1794  C1831   1.369   .     A
O1795  Al2721  1.958   .     S
O1795  C1832   1.300   .     A
O1796  C1833   1.300   .     A
O1796  Al1826  1.788   .     S
C1797  C1798   1.371   .     A
C1797  C1835   1.371   .     A
C1798  C1836   1.369   .     A
O1799  Al2050  1.958   .     S
O1799  C1837   1.300   .     A
O1800  C1838   1.300   .     A
O1800  Al2049  1.788   .     S
C1801  C1802   1.371   .     A
C1801  C1840   1.371   .     A
C1802  C1841   1.369   .     A
O1803  Al1883  1.958   .     S
O1803  C1842   1.300   .     A
O1804  C1843   1.300   .     A
O1804  Al1828  1.788   .     S
C1805  C1806   1.371   .     A
C1805  C1845   1.371   .     A
C1806  C1846   1.369   .     A
O1807  Al1828  1.958   .     S
O1807  C1847   1.300   .     A
O1808  C1848   1.300   .     A
O1808  Al2779  1.788   .     S
C1809  C1810   1.371   .     A
C1809  C1840   1.371   .     A
C1810  C1841   1.369   .     A
O1811  Al2105  1.958   .     S
O1811  C1842   1.300   .     A
O1812  C1843   1.300   .     A
O1812  Al2050  1.788   .     S
C1813  C1814   1.371   .     A
C1813  C1845   1.371   .     A
C1814  C1846   1.369   .     A
O1815  Al1826  1.958   .     S
O1815  C1847   1.300   .     A
O1816  C1848   1.300   .     A
O1816  Al2777  1.788   .     S
C1817  C1818   1.371   .     A
C1817  C1830   1.371   .     A
C1818  C1831   1.369   .     A
O1819  Al2723  1.958   .     S
O1819  C1832   1.300   .     A
O1820  C1833   1.300   .     A
O1820  Al1828  1.788   .     S
C1821  C1822   1.371   .     A
C1821  C1835   1.371   .     A
C1822  C1836   1.369   .     A
O1823  Al1828  1.958   .     S
O1823  C1837   1.300   .     A
O1824  C1838   1.300   .     A
O1824  Al1827  1.788   .     S
Al1825 O2651   1.958   1_445 S
Al1825 O1997   1.844   1_455 S
Al1825 O1615   1.844   1_545 S
Al1825 O2472   1.788   1_545 S
Al1825 O1088   1.788   1_455 S
Al1826 O2471   1.958   1_545 S
Al1826 O2506   1.844   1_545 S
Al1826 O1844   1.844   .     S
Al1826 O2484   1.788   1_545 S
Al1827 O1971   1.958   1_455 S
Al1827 O1997   1.844   1_455 S
Al1827 O1080   1.788   1_455 S
Al1828 O1844   1.844   .     S
Al1828 O1834   1.844   .     S
O1829  Al1881  1.844   .     S
O1829  Al1883  1.844   .     S
C1830  C1832   1.500   .     S
C1831  C1833   1.500   .     S
O1834  Al2050  1.844   .     S
C1835  C1837   1.500   .     S
C1836  C1838   1.500   .     S
O1839  Al2723  1.844   .     S
O1839  Al2945  1.844   .     S
C1840  C1842   1.500   .     S
C1841  C1843   1.500   .     S
C1845  C1847   1.500   .     S
C1846  C1848   1.500   .     S
C1849  C1850   1.371   .     A
C1849  C1886   1.371   .     A
C1850  C1887   1.369   .     A
O1851  Al2777  1.958   .     S
O1851  C1888   1.300   .     A
O1852  C1889   1.300   .     A
O1852  Al1882  1.788   .     S
C1853  C1854   1.371   .     A
C1853  C1891   1.371   .     A
C1854  C1892   1.369   .     A
O1855  Al2106  1.958   .     S
O1855  C1893   1.300   .     A
O1856  C1894   1.300   .     A
O1856  Al2105  1.788   .     S
C1857  C1858   1.371   .     A
C1857  C1896   1.371   .     A
C1858  C1897   1.369   .     A
O1859  Al1939  1.958   .     S
O1859  C1898   1.300   .     A
O1860  C1899   1.300   .     A
O1860  Al1884  1.788   .     S
C1861  C1862   1.371   .     A
C1861  C1901   1.371   .     A
C1862  C1902   1.369   .     A
O1863  Al1884  1.958   .     S
O1863  C1903   1.300   .     A
O1864  C1904   1.300   .     A
O1864  Al2835  1.788   .     S
C1865  C1866   1.371   .     A
C1865  C1896   1.371   .     A
C1866  C1897   1.369   .     A
O1867  Al2161  1.958   .     S
O1867  C1898   1.300   .     A
O1868  C1899   1.300   .     A
O1868  Al2106  1.788   .     S
C1869  C1870   1.371   .     A
C1869  C1901   1.371   .     A
C1870  C1902   1.369   .     A
O1871  Al1882  1.958   .     S
O1871  C1903   1.300   .     A
O1872  C1904   1.300   .     A
O1872  Al2833  1.788   .     S
C1873  C1874   1.371   .     A
C1873  C1886   1.371   .     A
C1874  C1887   1.369   .     A
O1875  Al2779  1.958   .     S
O1875  C1888   1.300   .     A
O1876  C1889   1.300   .     A
O1876  Al1884  1.788   .     S
C1877  C1878   1.371   .     A
C1877  C1891   1.371   .     A
C1878  C1892   1.369   .     A
O1879  Al1884  1.958   .     S
O1879  C1893   1.300   .     A
O1880  C1894   1.300   .     A
O1880  Al1883  1.788   .     S
Al1881 O2483   1.958   1_545 S
Al1881 O1671   1.844   1_545 S
Al1881 O2528   1.788   1_545 S
Al1882 O2527   1.958   1_545 S
Al1882 O2562   1.844   1_545 S
Al1882 O1900   1.844   .     S
Al1882 O2540   1.788   1_545 S
Al1884 O1900   1.844   .     S
Al1884 O1890   1.844   .     S
O1885  Al1937  1.844   .     S
O1885  Al1939  1.844   .     S
C1886  C1888   1.500   .     S
C1887  C1889   1.500   .     S
O1890  Al2106  1.844   .     S
C1891  C1893   1.500   .     S
C1892  C1894   1.500   .     S
O1895  Al2779  1.844   .     S
O1895  Al3001  1.844   .     S
C1896  C1898   1.500   .     S
C1897  C1899   1.500   .     S
C1901  C1903   1.500   .     S
C1902  C1904   1.500   .     S
C1905  C1906   1.371   .     A
C1905  C1942   1.371   .     A
C1906  C1943   1.369   .     A
O1907  Al2833  1.958   .     S
O1907  C1944   1.300   .     A
O1908  C1945   1.300   .     A
O1908  Al1938  1.788   .     S
C1909  C1910   1.371   .     A
C1909  C1947   1.371   .     A
C1910  C1948   1.369   .     A
O1911  Al2162  1.958   .     S
O1911  C1949   1.300   .     A
O1912  C1950   1.300   .     A
O1912  Al2161  1.788   .     S
C1913  C1914   1.371   .     A
C1913  C1952   1.371   .     A
C1914  C1953   1.369   .     A
O1915  Al1995  1.958   .     S
O1915  C1954   1.300   .     A
O1916  C1955   1.300   .     A
O1916  Al1940  1.788   .     S
C1917  C1918   1.371   .     A
C1917  C1957   1.371   .     A
C1918  C1958   1.369   .     A
O1919  Al1940  1.958   .     S
O1919  C1959   1.300   .     A
O1920  C1960   1.300   .     A
O1920  Al2891  1.788   .     S
C1921  C1922   1.371   .     A
C1921  C1952   1.371   .     A
C1922  C1953   1.369   .     A
O1923  Al2217  1.958   .     S
O1923  C1954   1.300   .     A
O1924  C1955   1.300   .     A
O1924  Al2162  1.788   .     S
C1925  C1926   1.371   .     A
C1925  C1957   1.371   .     A
C1926  C1958   1.369   .     A
O1927  Al1938  1.958   .     S
O1927  C1959   1.300   .     A
O1928  C1960   1.300   .     A
O1928  Al2889  1.788   .     S
C1929  C1930   1.371   .     A
C1929  C1942   1.371   .     A
C1930  C1943   1.369   .     A
O1931  Al2835  1.958   .     S
O1931  C1944   1.300   .     A
O1932  C1945   1.300   .     A
O1932  Al1940  1.788   .     S
C1933  C1934   1.371   .     A
C1933  C1947   1.371   .     A
C1934  C1948   1.369   .     A
O1935  Al1940  1.958   .     S
O1935  C1949   1.300   .     A
O1936  C1950   1.300   .     A
O1936  Al1939  1.788   .     S
Al1937 O2539   1.958   1_545 S
Al1937 O1727   1.844   1_545 S
Al1937 O2584   1.788   1_545 S
Al1938 O2583   1.958   1_545 S
Al1938 O2618   1.844   1_545 S
Al1938 O1956   1.844   .     S
Al1938 O2596   1.788   1_545 S
Al1940 O1956   1.844   .     S
Al1940 O1946   1.844   .     S
O1941  Al1993  1.844   .     S
O1941  Al1995  1.844   .     S
C1942  C1944   1.500   .     S
C1943  C1945   1.500   .     S
O1946  Al2162  1.844   .     S
C1947  C1949   1.500   .     S
C1948  C1950   1.500   .     S
O1951  Al2835  1.844   .     S
O1951  Al3057  1.844   .     S
C1952  C1954   1.500   .     S
C1953  C1955   1.500   .     S
C1957  C1959   1.500   .     S
C1958  C1960   1.500   .     S
C1961  C1962   1.371   .     A
C1961  C1998   1.371   .     A
C1962  C1999   1.369   .     A
O1963  Al2889  1.958   .     S
O1963  C2000   1.300   .     A
O1964  C2001   1.300   .     A
O1964  Al1994  1.788   .     S
C1965  C1966   1.371   .     A
C1965  C2003   1.371   .     A
C1966  C2004   1.369   .     A
O1967  Al2218  1.958   .     S
O1967  C2005   1.300   .     A
O1968  C2006   1.300   .     A
O1968  Al2217  1.788   .     S
C1969  C1970   1.371   .     A
C1969  C2008   1.371   .     A
C1970  C2009   1.369   .     A
O1971  Al1827  1.958   1_655 S
O1971  C2010   1.300   .     A
O1972  C2011   1.300   .     A
O1972  Al1996  1.788   .     S
C1973  C1974   1.371   .     A
C1973  C2013   1.371   .     A
C1974  C2014   1.369   .     A
O1975  Al1996  1.958   .     S
O1975  C2015   1.300   .     A
O1976  C2016   1.300   .     A
O1976  Al2723  1.788   1_655 S
C1977  C1978   1.371   .     A
C1977  C2008   1.371   .     A
C1978  C2009   1.369   .     A
O1979  Al2049  1.958   1_655 S
O1979  C2010   1.300   .     A
O1980  C2011   1.300   .     A
O1980  Al2218  1.788   .     S
C1981  C1982   1.371   .     A
C1981  C2013   1.371   .     A
C1982  C2014   1.369   .     A
O1983  Al1994  1.958   .     S
O1983  C2015   1.300   .     A
O1984  C2016   1.300   .     A
O1984  Al2721  1.788   1_655 S
C1985  C1986   1.371   .     A
C1985  C1998   1.371   .     A
C1986  C1999   1.369   .     A
O1987  Al2891  1.958   .     S
O1987  C2000   1.300   .     A
O1988  C2001   1.300   .     A
O1988  Al1996  1.788   .     S
C1989  C1990   1.371   .     A
C1989  C2003   1.371   .     A
C1990  C2004   1.369   .     A
O1991  Al1996  1.958   .     S
O1991  C2005   1.300   .     A
O1992  C2006   1.300   .     A
O1992  Al1995  1.788   .     S
Al1993 O2595   1.958   1_545 S
Al1993 O1783   1.844   1_545 S
Al1993 O2640   1.788   1_545 S
Al1994 O2639   1.958   1_545 S
Al1994 O2674   1.844   1_545 S
Al1994 O2012   1.844   .     S
Al1994 O2652   1.788   1_545 S
Al1996 O2012   1.844   .     S
Al1996 O2002   1.844   .     S
O1997  Al1825  1.844   1_655 S
O1997  Al1827  1.844   1_655 S
C1998  C2000   1.500   .     S
C1999  C2001   1.500   .     S
O2002  Al2218  1.844   .     S
C2003  C2005   1.500   .     S
C2004  C2006   1.500   .     S
O2007  Al2891  1.844   .     S
O2007  Al3113  1.844   .     S
C2008  C2010   1.500   .     S
C2009  C2011   1.500   .     S
C2013  C2015   1.500   .     S
C2014  C2016   1.500   .     S
C2017  C2018   1.371   .     A
C2017  C2054   1.371   .     A
C2018  C2055   1.369   .     A
O2019  Al2945  1.958   .     S
O2019  C2056   1.300   .     A
O2020  C2057   1.300   .     A
O2020  Al2050  1.788   .     S
C2021  C2022   1.371   .     A
C2021  C2059   1.371   .     A
C2022  C2060   1.369   .     A
O2023  Al2274  1.958   .     S
O2023  C2061   1.300   .     A
O2024  C2062   1.300   .     A
O2024  Al2273  1.788   .     S
C2025  C2026   1.371   .     A
C2025  C2064   1.371   .     A
C2026  C2065   1.369   .     A
O2027  Al2107  1.958   .     S
O2027  C2066   1.300   .     A
O2028  C2067   1.300   .     A
O2028  Al2052  1.788   .     S
C2029  C2030   1.371   .     A
C2029  C2069   1.371   .     A
C2030  C2070   1.369   .     A
O2031  Al2052  1.958   .     S
O2031  C2071   1.300   .     A
O2032  C2072   1.300   .     A
O2032  Al3003  1.788   .     S
C2033  C2034   1.371   .     A
C2033  C2064   1.371   .     A
C2034  C2065   1.369   .     A
O2035  Al2329  1.958   .     S
O2035  C2066   1.300   .     A
O2036  C2067   1.300   .     A
O2036  Al2274  1.788   .     S
C2037  C2038   1.371   .     A
C2037  C2069   1.371   .     A
C2038  C2070   1.369   .     A
O2039  Al2050  1.958   .     S
O2039  C2071   1.300   .     A
O2040  C2072   1.300   .     A
O2040  Al3001  1.788   .     S
C2041  C2042   1.371   .     A
C2041  C2054   1.371   .     A
C2042  C2055   1.369   .     A
O2043  Al2947  1.958   .     S
O2043  C2056   1.300   .     A
O2044  C2057   1.300   .     A
O2044  Al2052  1.788   .     S
C2045  C2046   1.371   .     A
C2045  C2059   1.371   .     A
C2046  C2060   1.369   .     A
O2047  Al2052  1.958   .     S
O2047  C2061   1.300   .     A
O2048  C2062   1.300   .     A
O2048  Al2051  1.788   .     S
Al2049 O1979   1.958   1_455 S
Al2049 O2221   1.844   1_455 S
Al2049 O1312   1.788   1_455 S
Al2050 O2068   1.844   .     S
Al2051 O2195   1.958   1_455 S
Al2051 O2221   1.844   1_455 S
Al2051 O1304   1.788   1_455 S
Al2052 O2068   1.844   .     S
Al2052 O2058   1.844   .     S
O2053  Al2105  1.844   .     S
O2053  Al2107  1.844   .     S
C2054  C2056   1.500   .     S
C2055  C2057   1.500   .     S
O2058  Al2274  1.844   .     S
C2059  C2061   1.500   .     S
C2060  C2062   1.500   .     S
O2063  Al2947  1.844   .     S
O2063  Al3169  1.844   .     S
C2064  C2066   1.500   .     S
C2065  C2067   1.500   .     S
C2069  C2071   1.500   .     S
C2070  C2072   1.500   .     S
C2073  C2074   1.371   .     A
C2073  C2110   1.371   .     A
C2074  C2111   1.369   .     A
O2075  Al3001  1.958   .     S
O2075  C2112   1.300   .     A
O2076  C2113   1.300   .     A
O2076  Al2106  1.788   .     S
C2077  C2078   1.371   .     A
C2077  C2115   1.371   .     A
C2078  C2116   1.369   .     A
O2079  Al2330  1.958   .     S
O2079  C2117   1.300   .     A
O2080  C2118   1.300   .     A
O2080  Al2329  1.788   .     S
C2081  C2082   1.371   .     A
C2081  C2120   1.371   .     A
C2082  C2121   1.369   .     A
O2083  Al2163  1.958   .     S
O2083  C2122   1.300   .     A
O2084  C2123   1.300   .     A
O2084  Al2108  1.788   .     S
C2085  C2086   1.371   .     A
C2085  C2125   1.371   .     A
C2086  C2126   1.369   .     A
O2087  Al2108  1.958   .     S
O2087  C2127   1.300   .     A
O2088  C2128   1.300   .     A
O2088  Al3059  1.788   .     S
C2089  C2090   1.371   .     A
C2089  C2120   1.371   .     A
C2090  C2121   1.369   .     A
O2091  Al2385  1.958   .     S
O2091  C2122   1.300   .     A
O2092  C2123   1.300   .     A
O2092  Al2330  1.788   .     S
C2093  C2094   1.371   .     A
C2093  C2125   1.371   .     A
C2094  C2126   1.369   .     A
O2095  Al2106  1.958   .     S
O2095  C2127   1.300   .     A
O2096  C2128   1.300   .     A
O2096  Al3057  1.788   .     S
C2097  C2098   1.371   .     A
C2097  C2110   1.371   .     A
C2098  C2111   1.369   .     A
O2099  Al3003  1.958   .     S
O2099  C2112   1.300   .     A
O2100  C2113   1.300   .     A
O2100  Al2108  1.788   .     S
C2101  C2102   1.371   .     A
C2101  C2115   1.371   .     A
C2102  C2116   1.369   .     A
O2103  Al2108  1.958   .     S
O2103  C2117   1.300   .     A
O2104  C2118   1.300   .     A
O2104  Al2107  1.788   .     S
Al2106 O2124   1.844   .     S
Al2108 O2124   1.844   .     S
Al2108 O2114   1.844   .     S
O2109  Al2161  1.844   .     S
O2109  Al2163  1.844   .     S
C2110  C2112   1.500   .     S
C2111  C2113   1.500   .     S
O2114  Al2330  1.844   .     S
C2115  C2117   1.500   .     S
C2116  C2118   1.500   .     S
O2119  Al3003  1.844   .     S
O2119  Al3225  1.844   .     S
C2120  C2122   1.500   .     S
C2121  C2123   1.500   .     S
C2125  C2127   1.500   .     S
C2126  C2128   1.500   .     S
C2129  C2130   1.371   .     A
C2129  C2166   1.371   .     A
C2130  C2167   1.369   .     A
O2131  Al3057  1.958   .     S
O2131  C2168   1.300   .     A
O2132  C2169   1.300   .     A
O2132  Al2162  1.788   .     S
C2133  C2134   1.371   .     A
C2133  C2171   1.371   .     A
C2134  C2172   1.369   .     A
O2135  Al2386  1.958   .     S
O2135  C2173   1.300   .     A
O2136  C2174   1.300   .     A
O2136  Al2385  1.788   .     S
C2137  C2138   1.371   .     A
C2137  C2176   1.371   .     A
C2138  C2177   1.369   .     A
O2139  Al2219  1.958   .     S
O2139  C2178   1.300   .     A
O2140  C2179   1.300   .     A
O2140  Al2164  1.788   .     S
C2141  C2142   1.371   .     A
C2141  C2181   1.371   .     A
C2142  C2182   1.369   .     A
O2143  Al2164  1.958   .     S
O2143  C2183   1.300   .     A
O2144  C2184   1.300   .     A
O2144  Al3115  1.788   .     S
C2145  C2146   1.371   .     A
C2145  C2176   1.371   .     A
C2146  C2177   1.369   .     A
O2147  Al2441  1.958   .     S
O2147  C2178   1.300   .     A
O2148  C2179   1.300   .     A
O2148  Al2386  1.788   .     S
C2149  C2150   1.371   .     A
C2149  C2181   1.371   .     A
C2150  C2182   1.369   .     A
O2151  Al2162  1.958   .     S
O2151  C2183   1.300   .     A
O2152  C2184   1.300   .     A
O2152  Al3113  1.788   .     S
C2153  C2154   1.371   .     A
C2153  C2166   1.371   .     A
C2154  C2167   1.369   .     A
O2155  Al3059  1.958   .     S
O2155  C2168   1.300   .     A
O2156  C2169   1.300   .     A
O2156  Al2164  1.788   .     S
C2157  C2158   1.371   .     A
C2157  C2171   1.371   .     A
C2158  C2172   1.369   .     A
O2159  Al2164  1.958   .     S
O2159  C2173   1.300   .     A
O2160  C2174   1.300   .     A
O2160  Al2163  1.788   .     S
Al2162 O2180   1.844   .     S
Al2164 O2180   1.844   .     S
Al2164 O2170   1.844   .     S
O2165  Al2217  1.844   .     S
O2165  Al2219  1.844   .     S
C2166  C2168   1.500   .     S
C2167  C2169   1.500   .     S
O2170  Al2386  1.844   .     S
C2171  C2173   1.500   .     S
C2172  C2174   1.500   .     S
O2175  Al3059  1.844   .     S
O2175  Al3281  1.844   .     S
C2176  C2178   1.500   .     S
C2177  C2179   1.500   .     S
C2181  C2183   1.500   .     S
C2182  C2184   1.500   .     S
C2185  C2186   1.371   .     A
C2185  C2222   1.371   .     A
C2186  C2223   1.369   .     A
O2187  Al3113  1.958   .     S
O2187  C2224   1.300   .     A
O2188  C2225   1.300   .     A
O2188  Al2218  1.788   .     S
C2189  C2190   1.371   .     A
C2189  C2227   1.371   .     A
C2190  C2228   1.369   .     A
O2191  Al2442  1.958   .     S
O2191  C2229   1.300   .     A
O2192  C2230   1.300   .     A
O2192  Al2441  1.788   .     S
C2193  C2194   1.371   .     A
C2193  C2232   1.371   .     A
C2194  C2233   1.369   .     A
O2195  Al2051  1.958   1_655 S
O2195  C2234   1.300   .     A
O2196  C2235   1.300   .     A
O2196  Al2220  1.788   .     S
C2197  C2198   1.371   .     A
C2197  C2237   1.371   .     A
C2198  C2238   1.369   .     A
O2199  Al2220  1.958   .     S
O2199  C2239   1.300   .     A
O2200  C2240   1.300   .     A
O2200  Al2947  1.788   1_655 S
C2201  C2202   1.371   .     A
C2201  C2232   1.371   .     A
C2202  C2233   1.369   .     A
O2203  Al2273  1.958   1_655 S
O2203  C2234   1.300   .     A
O2204  C2235   1.300   .     A
O2204  Al2442  1.788   .     S
C2205  C2206   1.371   .     A
C2205  C2237   1.371   .     A
C2206  C2238   1.369   .     A
O2207  Al2218  1.958   .     S
O2207  C2239   1.300   .     A
O2208  C2240   1.300   .     A
O2208  Al2945  1.788   1_655 S
C2209  C2210   1.371   .     A
C2209  C2222   1.371   .     A
C2210  C2223   1.369   .     A
O2211  Al3115  1.958   .     S
O2211  C2224   1.300   .     A
O2212  C2225   1.300   .     A
O2212  Al2220  1.788   .     S
C2213  C2214   1.371   .     A
C2213  C2227   1.371   .     A
C2214  C2228   1.369   .     A
O2215  Al2220  1.958   .     S
O2215  C2229   1.300   .     A
O2216  C2230   1.300   .     A
O2216  Al2219  1.788   .     S
Al2218 O2236   1.844   .     S
Al2220 O2236   1.844   .     S
Al2220 O2226   1.844   .     S
O2221  Al2049  1.844   1_655 S
O2221  Al2051  1.844   1_655 S
C2222  C2224   1.500   .     S
C2223  C2225   1.500   .     S
O2226  Al2442  1.844   .     S
C2227  C2229   1.500   .     S
C2228  C2230   1.500   .     S
O2231  Al3115  1.844   .     S
O2231  Al3337  1.844   .     S
C2232  C2234   1.500   .     S
C2233  C2235   1.500   .     S
C2237  C2239   1.500   .     S
C2238  C2240   1.500   .     S
C2241  C2242   1.371   .     A
C2241  C2278   1.371   .     A
C2242  C2279   1.369   .     A
O2243  Al3169  1.958   .     S
O2243  C2280   1.300   .     A
O2244  C2281   1.300   .     A
O2244  Al2274  1.788   .     S
C2245  C2246   1.371   .     A
C2245  C2283   1.371   .     A
C2246  C2284   1.369   .     A
O2247  Al2498  1.958   .     S
O2247  C2285   1.300   .     A
O2248  C2286   1.300   .     A
O2248  Al2497  1.788   .     S
C2249  C2250   1.371   .     A
C2249  C2288   1.371   .     A
C2250  C2289   1.369   .     A
O2251  Al2331  1.958   .     S
O2251  C2290   1.300   .     A
O2252  C2291   1.300   .     A
O2252  Al2276  1.788   .     S
C2253  C2254   1.371   .     A
C2253  C2293   1.371   .     A
C2254  C2294   1.369   .     A
O2255  Al2276  1.958   .     S
O2255  C2295   1.300   .     A
O2256  C2296   1.300   .     A
O2256  Al3227  1.788   .     S
C2257  C2258   1.371   .     A
C2257  C2288   1.371   .     A
C2258  C2289   1.369   .     A
O2259  Al2553  1.958   .     S
O2259  C2290   1.300   .     A
O2260  C2291   1.300   .     A
O2260  Al2498  1.788   .     S
C2261  C2262   1.371   .     A
C2261  C2293   1.371   .     A
C2262  C2294   1.369   .     A
O2263  Al2274  1.958   .     S
O2263  C2295   1.300   .     A
O2264  C2296   1.300   .     A
O2264  Al3225  1.788   .     S
C2265  C2266   1.371   .     A
C2265  C2278   1.371   .     A
C2266  C2279   1.369   .     A
O2267  Al3171  1.958   .     S
O2267  C2280   1.300   .     A
O2268  C2281   1.300   .     A
O2268  Al2276  1.788   .     S
C2269  C2270   1.371   .     A
C2269  C2283   1.371   .     A
C2270  C2284   1.369   .     A
O2271  Al2276  1.958   .     S
O2271  C2285   1.300   .     A
O2272  C2286   1.300   .     A
O2272  Al2275  1.788   .     S
Al2273 O2203   1.958   1_455 S
Al2273 O2445   1.844   1_455 S
Al2273 O1536   1.788   1_455 S
Al2274 O2292   1.844   .     S
Al2275 O2419   1.958   1_455 S
Al2275 O2445   1.844   1_455 S
Al2275 O1528   1.788   1_455 S
Al2276 O2292   1.844   .     S
Al2276 O2282   1.844   .     S
O2277  Al2329  1.844   .     S
O2277  Al2331  1.844   .     S
C2278  C2280   1.500   .     S
C2279  C2281   1.500   .     S
O2282  Al2498  1.844   .     S
C2283  C2285   1.500   .     S
C2284  C2286   1.500   .     S
O2287  Al3171  1.844   .     S
O2287  Al3393  1.844   .     S
C2288  C2290   1.500   .     S
C2289  C2291   1.500   .     S
C2293  C2295   1.500   .     S
C2294  C2296   1.500   .     S
C2297  C2298   1.371   .     A
C2297  C2334   1.371   .     A
C2298  C2335   1.369   .     A
O2299  Al3225  1.958   .     S
O2299  C2336   1.300   .     A
O2300  C2337   1.300   .     A
O2300  Al2330  1.788   .     S
C2301  C2302   1.371   .     A
C2301  C2339   1.371   .     A
C2302  C2340   1.369   .     A
O2303  Al2554  1.958   .     S
O2303  C2341   1.300   .     A
O2304  C2342   1.300   .     A
O2304  Al2553  1.788   .     S
C2305  C2306   1.371   .     A
C2305  C2344   1.371   .     A
C2306  C2345   1.369   .     A
O2307  Al2387  1.958   .     S
O2307  C2346   1.300   .     A
O2308  C2347   1.300   .     A
O2308  Al2332  1.788   .     S
C2309  C2310   1.371   .     A
C2309  C2349   1.371   .     A
C2310  C2350   1.369   .     A
O2311  Al2332  1.958   .     S
O2311  C2351   1.300   .     A
O2312  C2352   1.300   .     A
O2312  Al3283  1.788   .     S
C2313  C2314   1.371   .     A
C2313  C2344   1.371   .     A
C2314  C2345   1.369   .     A
O2315  Al2609  1.958   .     S
O2315  C2346   1.300   .     A
O2316  C2347   1.300   .     A
O2316  Al2554  1.788   .     S
C2317  C2318   1.371   .     A
C2317  C2349   1.371   .     A
C2318  C2350   1.369   .     A
O2319  Al2330  1.958   .     S
O2319  C2351   1.300   .     A
O2320  C2352   1.300   .     A
O2320  Al3281  1.788   .     S
C2321  C2322   1.371   .     A
C2321  C2334   1.371   .     A
C2322  C2335   1.369   .     A
O2323  Al3227  1.958   .     S
O2323  C2336   1.300   .     A
O2324  C2337   1.300   .     A
O2324  Al2332  1.788   .     S
C2325  C2326   1.371   .     A
C2325  C2339   1.371   .     A
C2326  C2340   1.369   .     A
O2327  Al2332  1.958   .     S
O2327  C2341   1.300   .     A
O2328  C2342   1.300   .     A
O2328  Al2331  1.788   .     S
Al2330 O2348   1.844   .     S
Al2332 O2348   1.844   .     S
Al2332 O2338   1.844   .     S
O2333  Al2385  1.844   .     S
O2333  Al2387  1.844   .     S
C2334  C2336   1.500   .     S
C2335  C2337   1.500   .     S
O2338  Al2554  1.844   .     S
C2339  C2341   1.500   .     S
C2340  C2342   1.500   .     S
O2343  Al3227  1.844   .     S
O2343  Al3449  1.844   .     S
C2344  C2346   1.500   .     S
C2345  C2347   1.500   .     S
C2349  C2351   1.500   .     S
C2350  C2352   1.500   .     S
C2353  C2354   1.371   .     A
C2353  C2390   1.371   .     A
C2354  C2391   1.369   .     A
O2355  Al3281  1.958   .     S
O2355  C2392   1.300   .     A
O2356  C2393   1.300   .     A
O2356  Al2386  1.788   .     S
C2357  C2358   1.371   .     A
C2357  C2395   1.371   .     A
C2358  C2396   1.369   .     A
O2359  Al2610  1.958   .     S
O2359  C2397   1.300   .     A
O2360  C2398   1.300   .     A
O2360  Al2609  1.788   .     S
C2361  C2362   1.371   .     A
C2361  C2400   1.371   .     A
C2362  C2401   1.369   .     A
O2363  Al2443  1.958   .     S
O2363  C2402   1.300   .     A
O2364  C2403   1.300   .     A
O2364  Al2388  1.788   .     S
C2365  C2366   1.371   .     A
C2365  C2405   1.371   .     A
C2366  C2406   1.369   .     A
O2367  Al2388  1.958   .     S
O2367  C2407   1.300   .     A
O2368  C2408   1.300   .     A
O2368  Al3339  1.788   .     S
C2369  C2370   1.371   .     A
C2369  C2400   1.371   .     A
C2370  C2401   1.369   .     A
O2371  Al2665  1.958   .     S
O2371  C2402   1.300   .     A
O2372  C2403   1.300   .     A
O2372  Al2610  1.788   .     S
C2373  C2374   1.371   .     A
C2373  C2405   1.371   .     A
C2374  C2406   1.369   .     A
O2375  Al2386  1.958   .     S
O2375  C2407   1.300   .     A
O2376  C2408   1.300   .     A
O2376  Al3337  1.788   .     S
C2377  C2378   1.371   .     A
C2377  C2390   1.371   .     A
C2378  C2391   1.369   .     A
O2379  Al3283  1.958   .     S
O2379  C2392   1.300   .     A
O2380  C2393   1.300   .     A
O2380  Al2388  1.788   .     S
C2381  C2382   1.371   .     A
C2381  C2395   1.371   .     A
C2382  C2396   1.369   .     A
O2383  Al2388  1.958   .     S
O2383  C2397   1.300   .     A
O2384  C2398   1.300   .     A
O2384  Al2387  1.788   .     S
Al2386 O2404   1.844   .     S
Al2388 O2404   1.844   .     S
Al2388 O2394   1.844   .     S
O2389  Al2441  1.844   .     S
O2389  Al2443  1.844   .     S
C2390  C2392   1.500   .     S
C2391  C2393   1.500   .     S
O2394  Al2610  1.844   .     S
C2395  C2397   1.500   .     S
C2396  C2398   1.500   .     S
O2399  Al3283  1.844   .     S
O2399  Al3505  1.844   .     S
C2400  C2402   1.500   .     S
C2401  C2403   1.500   .     S
C2405  C2407   1.500   .     S
C2406  C2408   1.500   .     S
C2409  C2410   1.371   .     A
C2409  C2446   1.371   .     A
C2410  C2447   1.369   .     A
O2411  Al3337  1.958   .     S
O2411  C2448   1.300   .     A
O2412  C2449   1.300   .     A
O2412  Al2442  1.788   .     S
C2413  C2414   1.371   .     A
C2413  C2451   1.371   .     A
C2414  C2452   1.369   .     A
O2415  Al2666  1.958   .     S
O2415  C2453   1.300   .     A
O2416  C2454   1.300   .     A
O2416  Al2665  1.788   .     S
C2417  C2418   1.371   .     A
C2417  C2456   1.371   .     A
C2418  C2457   1.369   .     A
O2419  Al2275  1.958   1_655 S
O2419  C2458   1.300   .     A
O2420  C2459   1.300   .     A
O2420  Al2444  1.788   .     S
C2421  C2422   1.371   .     A
C2421  C2461   1.371   .     A
C2422  C2462   1.369   .     A
O2423  Al2444  1.958   .     S
O2423  C2463   1.300   .     A
O2424  C2464   1.300   .     A
O2424  Al3171  1.788   1_655 S
C2425  C2426   1.371   .     A
C2425  C2456   1.371   .     A
C2426  C2457   1.369   .     A
O2427  Al2497  1.958   1_655 S
O2427  C2458   1.300   .     A
O2428  C2459   1.300   .     A
O2428  Al2666  1.788   .     S
C2429  C2430   1.371   .     A
C2429  C2461   1.371   .     A
C2430  C2462   1.369   .     A
O2431  Al2442  1.958   .     S
O2431  C2463   1.300   .     A
O2432  C2464   1.300   .     A
O2432  Al3169  1.788   1_655 S
C2433  C2434   1.371   .     A
C2433  C2446   1.371   .     A
C2434  C2447   1.369   .     A
O2435  Al3339  1.958   .     S
O2435  C2448   1.300   .     A
O2436  C2449   1.300   .     A
O2436  Al2444  1.788   .     S
C2437  C2438   1.371   .     A
C2437  C2451   1.371   .     A
C2438  C2452   1.369   .     A
O2439  Al2444  1.958   .     S
O2439  C2453   1.300   .     A
O2440  C2454   1.300   .     A
O2440  Al2443  1.788   .     S
Al2442 O2460   1.844   .     S
Al2444 O2460   1.844   .     S
Al2444 O2450   1.844   .     S
O2445  Al2273  1.844   1_655 S
O2445  Al2275  1.844   1_655 S
C2446  C2448   1.500   .     S
C2447  C2449   1.500   .     S
O2450  Al2666  1.844   .     S
C2451  C2453   1.500   .     S
C2452  C2454   1.500   .     S
O2455  Al3339  1.844   .     S
O2455  Al3561  1.844   .     S
C2456  C2458   1.500   .     S
C2457  C2459   1.500   .     S
C2461  C2463   1.500   .     S
C2462  C2464   1.500   .     S
C2465  C2466   1.371   .     A
C2465  C2502   1.371   .     A
C2466  C2503   1.369   .     A
O2467  Al3393  1.958   .     S
O2467  C2504   1.300   .     A
O2468  C2505   1.300   .     A
O2468  Al2498  1.788   .     S
C2469  C2470   1.371   .     A
C2469  C2507   1.371   .     A
C2470  C2508   1.369   .     A
O2471  Al1826  1.958   1_565 S
O2471  C2509   1.300   .     A
O2472  C2510   1.300   .     A
O2472  Al1825  1.788   1_565 S
C2473  C2474   1.371   .     A
C2473  C2512   1.371   .     A
C2474  C2513   1.369   .     A
O2475  Al2555  1.958   .     S
O2475  C2514   1.300   .     A
O2476  C2515   1.300   .     A
O2476  Al2500  1.788   .     S
C2477  C2478   1.371   .     A
C2477  C2517   1.371   .     A
C2478  C2518   1.369   .     A
O2479  Al2500  1.958   .     S
O2479  C2519   1.300   .     A
O2480  C2520   1.300   .     A
O2480  Al3451  1.788   .     S
C2481  C2482   1.371   .     A
C2481  C2512   1.371   .     A
C2482  C2513   1.369   .     A
O2483  Al1881  1.958   1_565 S
O2483  C2514   1.300   .     A
O2484  C2515   1.300   .     A
O2484  Al1826  1.788   1_565 S
C2485  C2486   1.371   .     A
C2485  C2517   1.371   .     A
C2486  C2518   1.369   .     A
O2487  Al2498  1.958   .     S
O2487  C2519   1.300   .     A
O2488  C2520   1.300   .     A
O2488  Al3449  1.788   .     S
C2489  C2490   1.371   .     A
C2489  C2502   1.371   .     A
C2490  C2503   1.369   .     A
O2491  Al3395  1.958   .     S
O2491  C2504   1.300   .     A
O2492  C2505   1.300   .     A
O2492  Al2500  1.788   .     S
C2493  C2494   1.371   .     A
C2493  C2507   1.371   .     A
C2494  C2508   1.369   .     A
O2495  Al2500  1.958   .     S
O2495  C2509   1.300   .     A
O2496  C2510   1.300   .     A
O2496  Al2499  1.788   .     S
Al2497 O2427   1.958   1_455 S
Al2497 O2669   1.844   1_455 S
Al2497 O1760   1.788   1_455 S
Al2498 O2516   1.844   .     S
Al2499 O2643   1.958   1_455 S
Al2499 O2669   1.844   1_455 S
Al2499 O1752   1.788   1_455 S
Al2500 O2516   1.844   .     S
Al2500 O2506   1.844   .     S
O2501  Al2553  1.844   .     S
O2501  Al2555  1.844   .     S
C2502  C2504   1.500   .     S
C2503  C2505   1.500   .     S
O2506  Al1826  1.844   1_565 S
C2507  C2509   1.500   .     S
C2508  C2510   1.500   .     S
O2511  Al3395  1.844   .     S
O2511  Al2721  1.844   1_565 S
C2512  C2514   1.500   .     S
C2513  C2515   1.500   .     S
C2517  C2519   1.500   .     S
C2518  C2520   1.500   .     S
C2521  C2522   1.371   .     A
C2521  C2558   1.371   .     A
C2522  C2559   1.369   .     A
O2523  Al3449  1.958   .     S
O2523  C2560   1.300   .     A
O2524  C2561   1.300   .     A
O2524  Al2554  1.788   .     S
C2525  C2526   1.371   .     A
C2525  C2563   1.371   .     A
C2526  C2564   1.369   .     A
O2527  Al1882  1.958   1_565 S
O2527  C2565   1.300   .     A
O2528  C2566   1.300   .     A
O2528  Al1881  1.788   1_565 S
C2529  C2530   1.371   .     A
C2529  C2568   1.371   .     A
C2530  C2569   1.369   .     A
O2531  Al2611  1.958   .     S
O2531  C2570   1.300   .     A
O2532  C2571   1.300   .     A
O2532  Al2556  1.788   .     S
C2533  C2534   1.371   .     A
C2533  C2573   1.371   .     A
C2534  C2574   1.369   .     A
O2535  Al2556  1.958   .     S
O2535  C2575   1.300   .     A
O2536  C2576   1.300   .     A
O2536  Al3507  1.788   .     S
C2537  C2538   1.371   .     A
C2537  C2568   1.371   .     A
C2538  C2569   1.369   .     A
O2539  Al1937  1.958   1_565 S
O2539  C2570   1.300   .     A
O2540  C2571   1.300   .     A
O2540  Al1882  1.788   1_565 S
C2541  C2542   1.371   .     A
C2541  C2573   1.371   .     A
C2542  C2574   1.369   .     A
O2543  Al2554  1.958   .     S
O2543  C2575   1.300   .     A
O2544  C2576   1.300   .     A
O2544  Al3505  1.788   .     S
C2545  C2546   1.371   .     A
C2545  C2558   1.371   .     A
C2546  C2559   1.369   .     A
O2547  Al3451  1.958   .     S
O2547  C2560   1.300   .     A
O2548  C2561   1.300   .     A
O2548  Al2556  1.788   .     S
C2549  C2550   1.371   .     A
C2549  C2563   1.371   .     A
C2550  C2564   1.369   .     A
O2551  Al2556  1.958   .     S
O2551  C2565   1.300   .     A
O2552  C2566   1.300   .     A
O2552  Al2555  1.788   .     S
Al2554 O2572   1.844   .     S
Al2556 O2572   1.844   .     S
Al2556 O2562   1.844   .     S
O2557  Al2609  1.844   .     S
O2557  Al2611  1.844   .     S
C2558  C2560   1.500   .     S
C2559  C2561   1.500   .     S
O2562  Al1882  1.844   1_565 S
C2563  C2565   1.500   .     S
C2564  C2566   1.500   .     S
O2567  Al3451  1.844   .     S
O2567  Al2777  1.844   1_565 S
C2568  C2570   1.500   .     S
C2569  C2571   1.500   .     S
C2573  C2575   1.500   .     S
C2574  C2576   1.500   .     S
C2577  C2578   1.371   .     A
C2577  C2614   1.371   .     A
C2578  C2615   1.369   .     A
O2579  Al3505  1.958   .     S
O2579  C2616   1.300   .     A
O2580  C2617   1.300   .     A
O2580  Al2610  1.788   .     S
C2581  C2582   1.371   .     A
C2581  C2619   1.371   .     A
C2582  C2620   1.369   .     A
O2583  Al1938  1.958   1_565 S
O2583  C2621   1.300   .     A
O2584  C2622   1.300   .     A
O2584  Al1937  1.788   1_565 S
C2585  C2586   1.371   .     A
C2585  C2624   1.371   .     A
C2586  C2625   1.369   .     A
O2587  Al2667  1.958   .     S
O2587  C2626   1.300   .     A
O2588  C2627   1.300   .     A
O2588  Al2612  1.788   .     S
C2589  C2590   1.371   .     A
C2589  C2629   1.371   .     A
C2590  C2630   1.369   .     A
O2591  Al2612  1.958   .     S
O2591  C2631   1.300   .     A
O2592  C2632   1.300   .     A
O2592  Al3563  1.788   .     S
C2593  C2594   1.371   .     A
C2593  C2624   1.371   .     A
C2594  C2625   1.369   .     A
O2595  Al1993  1.958   1_565 S
O2595  C2626   1.300   .     A
O2596  C2627   1.300   .     A
O2596  Al1938  1.788   1_565 S
C2597  C2598   1.371   .     A
C2597  C2629   1.371   .     A
C2598  C2630   1.369   .     A
O2599  Al2610  1.958   .     S
O2599  C2631   1.300   .     A
O2600  C2632   1.300   .     A
O2600  Al3561  1.788   .     S
C2601  C2602   1.371   .     A
C2601  C2614   1.371   .     A
C2602  C2615   1.369   .     A
O2603  Al3507  1.958   .     S
O2603  C2616   1.300   .     A
O2604  C2617   1.300   .     A
O2604  Al2612  1.788   .     S
C2605  C2606   1.371   .     A
C2605  C2619   1.371   .     A
C2606  C2620   1.369   .     A
O2607  Al2612  1.958   .     S
O2607  C2621   1.300   .     A
O2608  C2622   1.300   .     A
O2608  Al2611  1.788   .     S
Al2610 O2628   1.844   .     S
Al2612 O2628   1.844   .     S
Al2612 O2618   1.844   .     S
O2613  Al2665  1.844   .     S
O2613  Al2667  1.844   .     S
C2614  C2616   1.500   .     S
C2615  C2617   1.500   .     S
O2618  Al1938  1.844   1_565 S
C2619  C2621   1.500   .     S
C2620  C2622   1.500   .     S
O2623  Al3507  1.844   .     S
O2623  Al2833  1.844   1_565 S
C2624  C2626   1.500   .     S
C2625  C2627   1.500   .     S
C2629  C2631   1.500   .     S
C2630  C2632   1.500   .     S
C2633  C2634   1.371   .     A
C2633  C2670   1.371   .     A
C2634  C2671   1.369   .     A
O2635  Al3561  1.958   .     S
O2635  C2672   1.300   .     A
O2636  C2673   1.300   .     A
O2636  Al2666  1.788   .     S
C2637  C2638   1.371   .     A
C2637  C2675   1.371   .     A
C2638  C2676   1.369   .     A
O2639  Al1994  1.958   1_565 S
O2639  C2677   1.300   .     A
O2640  C2678   1.300   .     A
O2640  Al1993  1.788   1_565 S
C2641  C2642   1.371   .     A
C2641  C2680   1.371   .     A
C2642  C2681   1.369   .     A
O2643  Al2499  1.958   1_655 S
O2643  C2682   1.300   .     A
O2644  C2683   1.300   .     A
O2644  Al2668  1.788   .     S
C2645  C2646   1.371   .     A
C2645  C2685   1.371   .     A
C2646  C2686   1.369   .     A
O2647  Al2668  1.958   .     S
O2647  C2687   1.300   .     A
O2648  C2688   1.300   .     A
O2648  Al3395  1.788   1_655 S
C2649  C2650   1.371   .     A
C2649  C2680   1.371   .     A
C2650  C2681   1.369   .     A
O2651  Al1825  1.958   1_665 S
O2651  C2682   1.300   .     A
O2652  C2683   1.300   .     A
O2652  Al1994  1.788   1_565 S
C2653  C2654   1.371   .     A
C2653  C2685   1.371   .     A
C2654  C2686   1.369   .     A
O2655  Al2666  1.958   .     S
O2655  C2687   1.300   .     A
O2656  C2688   1.300   .     A
O2656  Al3393  1.788   1_655 S
C2657  C2658   1.371   .     A
C2657  C2670   1.371   .     A
C2658  C2671   1.369   .     A
O2659  Al3563  1.958   .     S
O2659  C2672   1.300   .     A
O2660  C2673   1.300   .     A
O2660  Al2668  1.788   .     S
C2661  C2662   1.371   .     A
C2661  C2675   1.371   .     A
C2662  C2676   1.369   .     A
O2663  Al2668  1.958   .     S
O2663  C2677   1.300   .     A
O2664  C2678   1.300   .     A
O2664  Al2667  1.788   .     S
Al2666 O2684   1.844   .     S
Al2668 O2684   1.844   .     S
Al2668 O2674   1.844   .     S
O2669  Al2497  1.844   1_655 S
O2669  Al2499  1.844   1_655 S
C2670  C2672   1.500   .     S
C2671  C2673   1.500   .     S
O2674  Al1994  1.844   1_565 S
C2675  C2677   1.500   .     S
C2676  C2678   1.500   .     S
O2679  Al3563  1.844   .     S
O2679  Al2889  1.844   1_565 S
C2680  C2682   1.500   .     S
C2681  C2683   1.500   .     S
C2685  C2687   1.500   .     S
C2686  C2688   1.500   .     S
C2689  C2690   1.371   .     A
C2689  C2726   1.371   .     A
C2690  C2727   1.369   .     A
O2691  Al33    1.958   1_556 S
O2691  C2728   1.300   .     A
O2692  C2729   1.300   .     A
O2692  Al2722  1.788   .     S
C2693  C2694   1.371   .     A
C2693  C2731   1.371   .     A
C2694  C2732   1.369   .     A
O2695  Al2946  1.958   .     S
O2695  C2733   1.300   .     A
O2696  C2734   1.300   .     A
O2696  Al2945  1.788   .     S
C2697  C2698   1.371   .     A
C2697  C2736   1.371   .     A
C2698  C2737   1.369   .     A
O2699  Al2779  1.958   .     S
O2699  C2738   1.300   .     A
O2700  C2739   1.300   .     A
O2700  Al2724  1.788   .     S
C2701  C2702   1.371   .     A
C2701  C2741   1.371   .     A
C2702  C2742   1.369   .     A
O2703  Al2724  1.958   .     S
O2703  C2743   1.300   .     A
O2704  C2744   1.300   .     A
O2704  Al91    1.788   1_556 S
C2705  C2706   1.371   .     A
C2705  C2736   1.371   .     A
C2706  C2737   1.369   .     A
O2707  Al3001  1.958   .     S
O2707  C2738   1.300   .     A
O2708  C2739   1.300   .     A
O2708  Al2946  1.788   .     S
C2709  C2710   1.371   .     A
C2709  C2741   1.371   .     A
C2710  C2742   1.369   .     A
O2711  Al2722  1.958   .     S
O2711  C2743   1.300   .     A
O2712  C2744   1.300   .     A
O2712  Al89    1.788   1_556 S
C2713  C2714   1.371   .     A
C2713  C2726   1.371   .     A
C2714  C2727   1.369   .     A
O2715  Al35    1.958   1_556 S
O2715  C2728   1.300   .     A
O2716  C2729   1.300   .     A
O2716  Al2724  1.788   .     S
C2717  C2718   1.371   .     A
C2717  C2731   1.371   .     A
C2718  C2732   1.369   .     A
O2719  Al2724  1.958   .     S
O2719  C2733   1.300   .     A
O2720  C2734   1.300   .     A
O2720  Al2723  1.788   .     S
Al2721 O3547   1.958   1_445 S
Al2721 O2893   1.844   1_455 S
Al2721 O2511   1.844   1_545 S
Al2721 O3368   1.788   1_545 S
Al2721 O1984   1.788   1_455 S
Al2722 O3367   1.958   1_545 S
Al2722 O3402   1.844   1_545 S
Al2722 O2740   1.844   .     S
Al2722 O3380   1.788   1_545 S
Al2723 O2867   1.958   1_455 S
Al2723 O2893   1.844   1_455 S
Al2723 O1976   1.788   1_455 S
Al2724 O2740   1.844   .     S
Al2724 O2730   1.844   .     S
O2725  Al2777  1.844   .     S
O2725  Al2779  1.844   .     S
C2726  C2728   1.500   .     S
C2727  C2729   1.500   .     S
O2730  Al2946  1.844   .     S
C2731  C2733   1.500   .     S
C2732  C2734   1.500   .     S
O2735  Al35    1.844   1_556 S
O2735  Al257   1.844   1_556 S
C2736  C2738   1.500   .     S
C2737  C2739   1.500   .     S
C2741  C2743   1.500   .     S
C2742  C2744   1.500   .     S
C2745  C2746   1.371   .     A
C2745  C2782   1.371   .     A
C2746  C2783   1.369   .     A
O2747  Al89    1.958   1_556 S
O2747  C2784   1.300   .     A
O2748  C2785   1.300   .     A
O2748  Al2778  1.788   .     S
C2749  C2750   1.371   .     A
C2749  C2787   1.371   .     A
C2750  C2788   1.369   .     A
O2751  Al3002  1.958   .     S
O2751  C2789   1.300   .     A
O2752  C2790   1.300   .     A
O2752  Al3001  1.788   .     S
C2753  C2754   1.371   .     A
C2753  C2792   1.371   .     A
C2754  C2793   1.369   .     A
O2755  Al2835  1.958   .     S
O2755  C2794   1.300   .     A
O2756  C2795   1.300   .     A
O2756  Al2780  1.788   .     S
C2757  C2758   1.371   .     A
C2757  C2797   1.371   .     A
C2758  C2798   1.369   .     A
O2759  Al2780  1.958   .     S
O2759  C2799   1.300   .     A
O2760  C2800   1.300   .     A
O2760  Al147   1.788   1_556 S
C2761  C2762   1.371   .     A
C2761  C2792   1.371   .     A
C2762  C2793   1.369   .     A
O2763  Al3057  1.958   .     S
O2763  C2794   1.300   .     A
O2764  C2795   1.300   .     A
O2764  Al3002  1.788   .     S
C2765  C2766   1.371   .     A
C2765  C2797   1.371   .     A
C2766  C2798   1.369   .     A
O2767  Al2778  1.958   .     S
O2767  C2799   1.300   .     A
O2768  C2800   1.300   .     A
O2768  Al145   1.788   1_556 S
C2769  C2770   1.371   .     A
C2769  C2782   1.371   .     A
C2770  C2783   1.369   .     A
O2771  Al91    1.958   1_556 S
O2771  C2784   1.300   .     A
O2772  C2785   1.300   .     A
O2772  Al2780  1.788   .     S
C2773  C2774   1.371   .     A
C2773  C2787   1.371   .     A
C2774  C2788   1.369   .     A
O2775  Al2780  1.958   .     S
O2775  C2789   1.300   .     A
O2776  C2790   1.300   .     A
O2776  Al2779  1.788   .     S
Al2777 O3379   1.958   1_545 S
Al2777 O2567   1.844   1_545 S
Al2777 O3424   1.788   1_545 S
Al2778 O3423   1.958   1_545 S
Al2778 O3458   1.844   1_545 S
Al2778 O2796   1.844   .     S
Al2778 O3436   1.788   1_545 S
Al2780 O2796   1.844   .     S
Al2780 O2786   1.844   .     S
O2781  Al2833  1.844   .     S
O2781  Al2835  1.844   .     S
C2782  C2784   1.500   .     S
C2783  C2785   1.500   .     S
O2786  Al3002  1.844   .     S
C2787  C2789   1.500   .     S
C2788  C2790   1.500   .     S
O2791  Al91    1.844   1_556 S
O2791  Al313   1.844   1_556 S
C2792  C2794   1.500   .     S
C2793  C2795   1.500   .     S
C2797  C2799   1.500   .     S
C2798  C2800   1.500   .     S
C2801  C2802   1.371   .     A
C2801  C2838   1.371   .     A
C2802  C2839   1.369   .     A
O2803  Al145   1.958   1_556 S
O2803  C2840   1.300   .     A
O2804  C2841   1.300   .     A
O2804  Al2834  1.788   .     S
C2805  C2806   1.371   .     A
C2805  C2843   1.371   .     A
C2806  C2844   1.369   .     A
O2807  Al3058  1.958   .     S
O2807  C2845   1.300   .     A
O2808  C2846   1.300   .     A
O2808  Al3057  1.788   .     S
C2809  C2810   1.371   .     A
C2809  C2848   1.371   .     A
C2810  C2849   1.369   .     A
O2811  Al2891  1.958   .     S
O2811  C2850   1.300   .     A
O2812  C2851   1.300   .     A
O2812  Al2836  1.788   .     S
C2813  C2814   1.371   .     A
C2813  C2853   1.371   .     A
C2814  C2854   1.369   .     A
O2815  Al2836  1.958   .     S
O2815  C2855   1.300   .     A
O2816  C2856   1.300   .     A
O2816  Al203   1.788   1_556 S
C2817  C2818   1.371   .     A
C2817  C2848   1.371   .     A
C2818  C2849   1.369   .     A
O2819  Al3113  1.958   .     S
O2819  C2850   1.300   .     A
O2820  C2851   1.300   .     A
O2820  Al3058  1.788   .     S
C2821  C2822   1.371   .     A
C2821  C2853   1.371   .     A
C2822  C2854   1.369   .     A
O2823  Al2834  1.958   .     S
O2823  C2855   1.300   .     A
O2824  C2856   1.300   .     A
O2824  Al201   1.788   1_556 S
C2825  C2826   1.371   .     A
C2825  C2838   1.371   .     A
C2826  C2839   1.369   .     A
O2827  Al147   1.958   1_556 S
O2827  C2840   1.300   .     A
O2828  C2841   1.300   .     A
O2828  Al2836  1.788   .     S
C2829  C2830   1.371   .     A
C2829  C2843   1.371   .     A
C2830  C2844   1.369   .     A
O2831  Al2836  1.958   .     S
O2831  C2845   1.300   .     A
O2832  C2846   1.300   .     A
O2832  Al2835  1.788   .     S
Al2833 O3435   1.958   1_545 S
Al2833 O2623   1.844   1_545 S
Al2833 O3480   1.788   1_545 S
Al2834 O3479   1.958   1_545 S
Al2834 O3514   1.844   1_545 S
Al2834 O2852   1.844   .     S
Al2834 O3492   1.788   1_545 S
Al2836 O2852   1.844   .     S
Al2836 O2842   1.844   .     S
O2837  Al2889  1.844   .     S
O2837  Al2891  1.844   .     S
C2838  C2840   1.500   .     S
C2839  C2841   1.500   .     S
O2842  Al3058  1.844   .     S
C2843  C2845   1.500   .     S
C2844  C2846   1.500   .     S
O2847  Al147   1.844   1_556 S
O2847  Al369   1.844   1_556 S
C2848  C2850   1.500   .     S
C2849  C2851   1.500   .     S
C2853  C2855   1.500   .     S
C2854  C2856   1.500   .     S
C2857  C2858   1.371   .     A
C2857  C2894   1.371   .     A
C2858  C2895   1.369   .     A
O2859  Al201   1.958   1_556 S
O2859  C2896   1.300   .     A
O2860  C2897   1.300   .     A
O2860  Al2890  1.788   .     S
C2861  C2862   1.371   .     A
C2861  C2899   1.371   .     A
C2862  C2900   1.369   .     A
O2863  Al3114  1.958   .     S
O2863  C2901   1.300   .     A
O2864  C2902   1.300   .     A
O2864  Al3113  1.788   .     S
C2865  C2866   1.371   .     A
C2865  C2904   1.371   .     A
C2866  C2905   1.369   .     A
O2867  Al2723  1.958   1_655 S
O2867  C2906   1.300   .     A
O2868  C2907   1.300   .     A
O2868  Al2892  1.788   .     S
C2869  C2870   1.371   .     A
C2869  C2909   1.371   .     A
C2870  C2910   1.369   .     A
O2871  Al2892  1.958   .     S
O2871  C2911   1.300   .     A
O2872  C2912   1.300   .     A
O2872  Al35    1.788   1_656 S
C2873  C2874   1.371   .     A
C2873  C2904   1.371   .     A
C2874  C2905   1.369   .     A
O2875  Al2945  1.958   1_655 S
O2875  C2906   1.300   .     A
O2876  C2907   1.300   .     A
O2876  Al3114  1.788   .     S
C2877  C2878   1.371   .     A
C2877  C2909   1.371   .     A
C2878  C2910   1.369   .     A
O2879  Al2890  1.958   .     S
O2879  C2911   1.300   .     A
O2880  C2912   1.300   .     A
O2880  Al33    1.788   1_656 S
C2881  C2882   1.371   .     A
C2881  C2894   1.371   .     A
C2882  C2895   1.369   .     A
O2883  Al203   1.958   1_556 S
O2883  C2896   1.300   .     A
O2884  C2897   1.300   .     A
O2884  Al2892  1.788   .     S
C2885  C2886   1.371   .     A
C2885  C2899   1.371   .     A
C2886  C2900   1.369   .     A
O2887  Al2892  1.958   .     S
O2887  C2901   1.300   .     A
O2888  C2902   1.300   .     A
O2888  Al2891  1.788   .     S
Al2889 O3491   1.958   1_545 S
Al2889 O2679   1.844   1_545 S
Al2889 O3536   1.788   1_545 S
Al2890 O3535   1.958   1_545 S
Al2890 O3570   1.844   1_545 S
Al2890 O2908   1.844   .     S
Al2890 O3548   1.788   1_545 S
Al2892 O2908   1.844   .     S
Al2892 O2898   1.844   .     S
O2893  Al2721  1.844   1_655 S
O2893  Al2723  1.844   1_655 S
C2894  C2896   1.500   .     S
C2895  C2897   1.500   .     S
O2898  Al3114  1.844   .     S
C2899  C2901   1.500   .     S
C2900  C2902   1.500   .     S
O2903  Al203   1.844   1_556 S
O2903  Al425   1.844   1_556 S
C2904  C2906   1.500   .     S
C2905  C2907   1.500   .     S
C2909  C2911   1.500   .     S
C2910  C2912   1.500   .     S
C2913  C2914   1.371   .     A
C2913  C2950   1.371   .     A
C2914  C2951   1.369   .     A
O2915  Al257   1.958   1_556 S
O2915  C2952   1.300   .     A
O2916  C2953   1.300   .     A
O2916  Al2946  1.788   .     S
C2917  C2918   1.371   .     A
C2917  C2955   1.371   .     A
C2918  C2956   1.369   .     A
O2919  Al3170  1.958   .     S
O2919  C2957   1.300   .     A
O2920  C2958   1.300   .     A
O2920  Al3169  1.788   .     S
C2921  C2922   1.371   .     A
C2921  C2960   1.371   .     A
C2922  C2961   1.369   .     A
O2923  Al3003  1.958   .     S
O2923  C2962   1.300   .     A
O2924  C2963   1.300   .     A
O2924  Al2948  1.788   .     S
C2925  C2926   1.371   .     A
C2925  C2965   1.371   .     A
C2926  C2966   1.369   .     A
O2927  Al2948  1.958   .     S
O2927  C2967   1.300   .     A
O2928  C2968   1.300   .     A
O2928  Al315   1.788   1_556 S
C2929  C2930   1.371   .     A
C2929  C2960   1.371   .     A
C2930  C2961   1.369   .     A
O2931  Al3225  1.958   .     S
O2931  C2962   1.300   .     A
O2932  C2963   1.300   .     A
O2932  Al3170  1.788   .     S
C2933  C2934   1.371   .     A
C2933  C2965   1.371   .     A
C2934  C2966   1.369   .     A
O2935  Al2946  1.958   .     S
O2935  C2967   1.300   .     A
O2936  C2968   1.300   .     A
O2936  Al313   1.788   1_556 S
C2937  C2938   1.371   .     A
C2937  C2950   1.371   .     A
C2938  C2951   1.369   .     A
O2939  Al259   1.958   1_556 S
O2939  C2952   1.300   .     A
O2940  C2953   1.300   .     A
O2940  Al2948  1.788   .     S
C2941  C2942   1.371   .     A
C2941  C2955   1.371   .     A
C2942  C2956   1.369   .     A
O2943  Al2948  1.958   .     S
O2943  C2957   1.300   .     A
O2944  C2958   1.300   .     A
O2944  Al2947  1.788   .     S
Al2945 O2875   1.958   1_455 S
Al2945 O3117   1.844   1_455 S
Al2945 O2208   1.788   1_455 S
Al2946 O2964   1.844   .     S
Al2947 O3091   1.958   1_455 S
Al2947 O3117   1.844   1_455 S
Al2947 O2200   1.788   1_455 S
Al2948 O2964   1.844   .     S
Al2948 O2954   1.844   .     S
O2949  Al3001  1.844   .     S
O2949  Al3003  1.844   .     S
C2950  C2952   1.500   .     S
C2951  C2953   1.500   .     S
O2954  Al3170  1.844   .     S
C2955  C2957   1.500   .     S
C2956  C2958   1.500   .     S
O2959  Al259   1.844   1_556 S
O2959  Al481   1.844   1_556 S
C2960  C2962   1.500   .     S
C2961  C2963   1.500   .     S
C2965  C2967   1.500   .     S
C2966  C2968   1.500   .     S
C2969  C2970   1.371   .     A
C2969  C3006   1.371   .     A
C2970  C3007   1.369   .     A
O2971  Al313   1.958   1_556 S
O2971  C3008   1.300   .     A
O2972  C3009   1.300   .     A
O2972  Al3002  1.788   .     S
C2973  C2974   1.371   .     A
C2973  C3011   1.371   .     A
C2974  C3012   1.369   .     A
O2975  Al3226  1.958   .     S
O2975  C3013   1.300   .     A
O2976  C3014   1.300   .     A
O2976  Al3225  1.788   .     S
C2977  C2978   1.371   .     A
C2977  C3016   1.371   .     A
C2978  C3017   1.369   .     A
O2979  Al3059  1.958   .     S
O2979  C3018   1.300   .     A
O2980  C3019   1.300   .     A
O2980  Al3004  1.788   .     S
C2981  C2982   1.371   .     A
C2981  C3021   1.371   .     A
C2982  C3022   1.369   .     A
O2983  Al3004  1.958   .     S
O2983  C3023   1.300   .     A
O2984  C3024   1.300   .     A
O2984  Al371   1.788   1_556 S
C2985  C2986   1.371   .     A
C2985  C3016   1.371   .     A
C2986  C3017   1.369   .     A
O2987  Al3281  1.958   .     S
O2987  C3018   1.300   .     A
O2988  C3019   1.300   .     A
O2988  Al3226  1.788   .     S
C2989  C2990   1.371   .     A
C2989  C3021   1.371   .     A
C2990  C3022   1.369   .     A
O2991  Al3002  1.958   .     S
O2991  C3023   1.300   .     A
O2992  C3024   1.300   .     A
O2992  Al369   1.788   1_556 S
C2993  C2994   1.371   .     A
C2993  C3006   1.371   .     A
C2994  C3007   1.369   .     A
O2995  Al315   1.958   1_556 S
O2995  C3008   1.300   .     A
O2996  C3009   1.300   .     A
O2996  Al3004  1.788   .     S
C2997  C2998   1.371   .     A
C2997  C3011   1.371   .     A
C2998  C3012   1.369   .     A
O2999  Al3004  1.958   .     S
O2999  C3013   1.300   .     A
O3000  C3014   1.300   .     A
O3000  Al3003  1.788   .     S
Al3002 O3020   1.844   .     S
Al3004 O3020   1.844   .     S
Al3004 O3010   1.844   .     S
O3005  Al3057  1.844   .     S
O3005  Al3059  1.844   .     S
C3006  C3008   1.500   .     S
C3007  C3009   1.500   .     S
O3010  Al3226  1.844   .     S
C3011  C3013   1.500   .     S
C3012  C3014   1.500   .     S
O3015  Al315   1.844   1_556 S
O3015  Al537   1.844   1_556 S
C3016  C3018   1.500   .     S
C3017  C3019   1.500   .     S
C3021  C3023   1.500   .     S
C3022  C3024   1.500   .     S
C3025  C3026   1.371   .     A
C3025  C3062   1.371   .     A
C3026  C3063   1.369   .     A
O3027  Al369   1.958   1_556 S
O3027  C3064   1.300   .     A
O3028  C3065   1.300   .     A
O3028  Al3058  1.788   .     S
C3029  C3030   1.371   .     A
C3029  C3067   1.371   .     A
C3030  C3068   1.369   .     A
O3031  Al3282  1.958   .     S
O3031  C3069   1.300   .     A
O3032  C3070   1.300   .     A
O3032  Al3281  1.788   .     S
C3033  C3034   1.371   .     A
C3033  C3072   1.371   .     A
C3034  C3073   1.369   .     A
O3035  Al3115  1.958   .     S
O3035  C3074   1.300   .     A
O3036  C3075   1.300   .     A
O3036  Al3060  1.788   .     S
C3037  C3038   1.371   .     A
C3037  C3077   1.371   .     A
C3038  C3078   1.369   .     A
O3039  Al3060  1.958   .     S
O3039  C3079   1.300   .     A
O3040  C3080   1.300   .     A
O3040  Al427   1.788   1_556 S
C3041  C3042   1.371   .     A
C3041  C3072   1.371   .     A
C3042  C3073   1.369   .     A
O3043  Al3337  1.958   .     S
O3043  C3074   1.300   .     A
O3044  C3075   1.300   .     A
O3044  Al3282  1.788   .     S
C3045  C3046   1.371   .     A
C3045  C3077   1.371   .     A
C3046  C3078   1.369   .     A
O3047  Al3058  1.958   .     S
O3047  C3079   1.300   .     A
O3048  C3080   1.300   .     A
O3048  Al425   1.788   1_556 S
C3049  C3050   1.371   .     A
C3049  C3062   1.371   .     A
C3050  C3063   1.369   .     A
O3051  Al371   1.958   1_556 S
O3051  C3064   1.300   .     A
O3052  C3065   1.300   .     A
O3052  Al3060  1.788   .     S
C3053  C3054   1.371   .     A
C3053  C3067   1.371   .     A
C3054  C3068   1.369   .     A
O3055  Al3060  1.958   .     S
O3055  C3069   1.300   .     A
O3056  C3070   1.300   .     A
O3056  Al3059  1.788   .     S
Al3058 O3076   1.844   .     S
Al3060 O3076   1.844   .     S
Al3060 O3066   1.844   .     S
O3061  Al3113  1.844   .     S
O3061  Al3115  1.844   .     S
C3062  C3064   1.500   .     S
C3063  C3065   1.500   .     S
O3066  Al3282  1.844   .     S
C3067  C3069   1.500   .     S
C3068  C3070   1.500   .     S
O3071  Al371   1.844   1_556 S
O3071  Al593   1.844   1_556 S
C3072  C3074   1.500   .     S
C3073  C3075   1.500   .     S
C3077  C3079   1.500   .     S
C3078  C3080   1.500   .     S
C3081  C3082   1.371   .     A
C3081  C3118   1.371   .     A
C3082  C3119   1.369   .     A
O3083  Al425   1.958   1_556 S
O3083  C3120   1.300   .     A
O3084  C3121   1.300   .     A
O3084  Al3114  1.788   .     S
C3085  C3086   1.371   .     A
C3085  C3123   1.371   .     A
C3086  C3124   1.369   .     A
O3087  Al3338  1.958   .     S
O3087  C3125   1.300   .     A
O3088  C3126   1.300   .     A
O3088  Al3337  1.788   .     S
C3089  C3090   1.371   .     A
C3089  C3128   1.371   .     A
C3090  C3129   1.369   .     A
O3091  Al2947  1.958   1_655 S
O3091  C3130   1.300   .     A
O3092  C3131   1.300   .     A
O3092  Al3116  1.788   .     S
C3093  C3094   1.371   .     A
C3093  C3133   1.371   .     A
C3094  C3134   1.369   .     A
O3095  Al3116  1.958   .     S
O3095  C3135   1.300   .     A
O3096  C3136   1.300   .     A
O3096  Al259   1.788   1_656 S
C3097  C3098   1.371   .     A
C3097  C3128   1.371   .     A
C3098  C3129   1.369   .     A
O3099  Al3169  1.958   1_655 S
O3099  C3130   1.300   .     A
O3100  C3131   1.300   .     A
O3100  Al3338  1.788   .     S
C3101  C3102   1.371   .     A
C3101  C3133   1.371   .     A
C3102  C3134   1.369   .     A
O3103  Al3114  1.958   .     S
O3103  C3135   1.300   .     A
O3104  C3136   1.300   .     A
O3104  Al257   1.788   1_656 S
C3105  C3106   1.371   .     A
C3105  C3118   1.371   .     A
C3106  C3119   1.369   .     A
O3107  Al427   1.958   1_556 S
O3107  C3120   1.300   .     A
O3108  C3121   1.300   .     A
O3108  Al3116  1.788   .     S
C3109  C3110   1.371   .     A
C3109  C3123   1.371   .     A
C3110  C3124   1.369   .     A
O3111  Al3116  1.958   .     S
O3111  C3125   1.300   .     A
O3112  C3126   1.300   .     A
O3112  Al3115  1.788   .     S
Al3114 O3132   1.844   .     S
Al3116 O3132   1.844   .     S
Al3116 O3122   1.844   .     S
O3117  Al2945  1.844   1_655 S
O3117  Al2947  1.844   1_655 S
C3118  C3120   1.500   .     S
C3119  C3121   1.500   .     S
O3122  Al3338  1.844   .     S
C3123  C3125   1.500   .     S
C3124  C3126   1.500   .     S
O3127  Al427   1.844   1_556 S
O3127  Al649   1.844   1_556 S
C3128  C3130   1.500   .     S
C3129  C3131   1.500   .     S
C3133  C3135   1.500   .     S
C3134  C3136   1.500   .     S
C3137  C3138   1.371   .     A
C3137  C3174   1.371   .     A
C3138  C3175   1.369   .     A
O3139  Al481   1.958   1_556 S
O3139  C3176   1.300   .     A
O3140  C3177   1.300   .     A
O3140  Al3170  1.788   .     S
C3141  C3142   1.371   .     A
C3141  C3179   1.371   .     A
C3142  C3180   1.369   .     A
O3143  Al3394  1.958   .     S
O3143  C3181   1.300   .     A
O3144  C3182   1.300   .     A
O3144  Al3393  1.788   .     S
C3145  C3146   1.371   .     A
C3145  C3184   1.371   .     A
C3146  C3185   1.369   .     A
O3147  Al3227  1.958   .     S
O3147  C3186   1.300   .     A
O3148  C3187   1.300   .     A
O3148  Al3172  1.788   .     S
C3149  C3150   1.371   .     A
C3149  C3189   1.371   .     A
C3150  C3190   1.369   .     A
O3151  Al3172  1.958   .     S
O3151  C3191   1.300   .     A
O3152  C3192   1.300   .     A
O3152  Al539   1.788   1_556 S
C3153  C3154   1.371   .     A
C3153  C3184   1.371   .     A
C3154  C3185   1.369   .     A
O3155  Al3449  1.958   .     S
O3155  C3186   1.300   .     A
O3156  C3187   1.300   .     A
O3156  Al3394  1.788   .     S
C3157  C3158   1.371   .     A
C3157  C3189   1.371   .     A
C3158  C3190   1.369   .     A
O3159  Al3170  1.958   .     S
O3159  C3191   1.300   .     A
O3160  C3192   1.300   .     A
O3160  Al537   1.788   1_556 S
C3161  C3162   1.371   .     A
C3161  C3174   1.371   .     A
C3162  C3175   1.369   .     A
O3163  Al483   1.958   1_556 S
O3163  C3176   1.300   .     A
O3164  C3177   1.300   .     A
O3164  Al3172  1.788   .     S
C3165  C3166   1.371   .     A
C3165  C3179   1.371   .     A
C3166  C3180   1.369   .     A
O3167  Al3172  1.958   .     S
O3167  C3181   1.300   .     A
O3168  C3182   1.300   .     A
O3168  Al3171  1.788   .     S
Al3169 O3099   1.958   1_455 S
Al3169 O3341   1.844   1_455 S
Al3169 O2432   1.788   1_455 S
Al3170 O3188   1.844   .     S
Al3171 O3315   1.958   1_455 S
Al3171 O3341   1.844   1_455 S
Al3171 O2424   1.788   1_455 S
Al3172 O3188   1.844   .     S
Al3172 O3178   1.844   .     S
O3173  Al3225  1.844   .     S
O3173  Al3227  1.844   .     S
C3174  C3176   1.500   .     S
C3175  C3177   1.500   .     S
O3178  Al3394  1.844   .     S
C3179  C3181   1.500   .     S
C3180  C3182   1.500   .     S
O3183  Al483   1.844   1_556 S
O3183  Al705   1.844   1_556 S
C3184  C3186   1.500   .     S
C3185  C3187   1.500   .     S
C3189  C3191   1.500   .     S
C3190  C3192   1.500   .     S
C3193  C3194   1.371   .     A
C3193  C3230   1.371   .     A
C3194  C3231   1.369   .     A
O3195  Al537   1.958   1_556 S
O3195  C3232   1.300   .     A
O3196  C3233   1.300   .     A
O3196  Al3226  1.788   .     S
C3197  C3198   1.371   .     A
C3197  C3235   1.371   .     A
C3198  C3236   1.369   .     A
O3199  Al3450  1.958   .     S
O3199  C3237   1.300   .     A
O3200  C3238   1.300   .     A
O3200  Al3449  1.788   .     S
C3201  C3202   1.371   .     A
C3201  C3240   1.371   .     A
C3202  C3241   1.369   .     A
O3203  Al3283  1.958   .     S
O3203  C3242   1.300   .     A
O3204  C3243   1.300   .     A
O3204  Al3228  1.788   .     S
C3205  C3206   1.371   .     A
C3205  C3245   1.371   .     A
C3206  C3246   1.369   .     A
O3207  Al3228  1.958   .     S
O3207  C3247   1.300   .     A
O3208  C3248   1.300   .     A
O3208  Al595   1.788   1_556 S
C3209  C3210   1.371   .     A
C3209  C3240   1.371   .     A
C3210  C3241   1.369   .     A
O3211  Al3505  1.958   .     S
O3211  C3242   1.300   .     A
O3212  C3243   1.300   .     A
O3212  Al3450  1.788   .     S
C3213  C3214   1.371   .     A
C3213  C3245   1.371   .     A
C3214  C3246   1.369   .     A
O3215  Al3226  1.958   .     S
O3215  C3247   1.300   .     A
O3216  C3248   1.300   .     A
O3216  Al593   1.788   1_556 S
C3217  C3218   1.371   .     A
C3217  C3230   1.371   .     A
C3218  C3231   1.369   .     A
O3219  Al539   1.958   1_556 S
O3219  C3232   1.300   .     A
O3220  C3233   1.300   .     A
O3220  Al3228  1.788   .     S
C3221  C3222   1.371   .     A
C3221  C3235   1.371   .     A
C3222  C3236   1.369   .     A
O3223  Al3228  1.958   .     S
O3223  C3237   1.300   .     A
O3224  C3238   1.300   .     A
O3224  Al3227  1.788   .     S
Al3226 O3244   1.844   .     S
Al3228 O3244   1.844   .     S
Al3228 O3234   1.844   .     S
O3229  Al3281  1.844   .     S
O3229  Al3283  1.844   .     S
C3230  C3232   1.500   .     S
C3231  C3233   1.500   .     S
O3234  Al3450  1.844   .     S
C3235  C3237   1.500   .     S
C3236  C3238   1.500   .     S
O3239  Al539   1.844   1_556 S
O3239  Al761   1.844   1_556 S
C3240  C3242   1.500   .     S
C3241  C3243   1.500   .     S
C3245  C3247   1.500   .     S
C3246  C3248   1.500   .     S
C3249  C3250   1.371   .     A
C3249  C3286   1.371   .     A
C3250  C3287   1.369   .     A
O3251  Al593   1.958   1_556 S
O3251  C3288   1.300   .     A
O3252  C3289   1.300   .     A
O3252  Al3282  1.788   .     S
C3253  C3254   1.371   .     A
C3253  C3291   1.371   .     A
C3254  C3292   1.369   .     A
O3255  Al3506  1.958   .     S
O3255  C3293   1.300   .     A
O3256  C3294   1.300   .     A
O3256  Al3505  1.788   .     S
C3257  C3258   1.371   .     A
C3257  C3296   1.371   .     A
C3258  C3297   1.369   .     A
O3259  Al3339  1.958   .     S
O3259  C3298   1.300   .     A
O3260  C3299   1.300   .     A
O3260  Al3284  1.788   .     S
C3261  C3262   1.371   .     A
C3261  C3301   1.371   .     A
C3262  C3302   1.369   .     A
O3263  Al3284  1.958   .     S
O3263  C3303   1.300   .     A
O3264  C3304   1.300   .     A
O3264  Al651   1.788   1_556 S
C3265  C3266   1.371   .     A
C3265  C3296   1.371   .     A
C3266  C3297   1.369   .     A
O3267  Al3561  1.958   .     S
O3267  C3298   1.300   .     A
O3268  C3299   1.300   .     A
O3268  Al3506  1.788   .     S
C3269  C3270   1.371   .     A
C3269  C3301   1.371   .     A
C3270  C3302   1.369   .     A
O3271  Al3282  1.958   .     S
O3271  C3303   1.300   .     A
O3272  C3304   1.300   .     A
O3272  Al649   1.788   1_556 S
C3273  C3274   1.371   .     A
C3273  C3286   1.371   .     A
C3274  C3287   1.369   .     A
O3275  Al595   1.958   1_556 S
O3275  C3288   1.300   .     A
O3276  C3289   1.300   .     A
O3276  Al3284  1.788   .     S
C3277  C3278   1.371   .     A
C3277  C3291   1.371   .     A
C3278  C3292   1.369   .     A
O3279  Al3284  1.958   .     S
O3279  C3293   1.300   .     A
O3280  C3294   1.300   .     A
O3280  Al3283  1.788   .     S
Al3282 O3300   1.844   .     S
Al3284 O3300   1.844   .     S
Al3284 O3290   1.844   .     S
O3285  Al3337  1.844   .     S
O3285  Al3339  1.844   .     S
C3286  C3288   1.500   .     S
C3287  C3289   1.500   .     S
O3290  Al3506  1.844   .     S
C3291  C3293   1.500   .     S
C3292  C3294   1.500   .     S
O3295  Al595   1.844   1_556 S
O3295  Al817   1.844   1_556 S
C3296  C3298   1.500   .     S
C3297  C3299   1.500   .     S
C3301  C3303   1.500   .     S
C3302  C3304   1.500   .     S
C3305  C3306   1.371   .     A
C3305  C3342   1.371   .     A
C3306  C3343   1.369   .     A
O3307  Al649   1.958   1_556 S
O3307  C3344   1.300   .     A
O3308  C3345   1.300   .     A
O3308  Al3338  1.788   .     S
C3309  C3310   1.371   .     A
C3309  C3347   1.371   .     A
C3310  C3348   1.369   .     A
O3311  Al3562  1.958   .     S
O3311  C3349   1.300   .     A
O3312  C3350   1.300   .     A
O3312  Al3561  1.788   .     S
C3313  C3314   1.371   .     A
C3313  C3352   1.371   .     A
C3314  C3353   1.369   .     A
O3315  Al3171  1.958   1_655 S
O3315  C3354   1.300   .     A
O3316  C3355   1.300   .     A
O3316  Al3340  1.788   .     S
C3317  C3318   1.371   .     A
C3317  C3357   1.371   .     A
C3318  C3358   1.369   .     A
O3319  Al3340  1.958   .     S
O3319  C3359   1.300   .     A
O3320  C3360   1.300   .     A
O3320  Al483   1.788   1_656 S
C3321  C3322   1.371   .     A
C3321  C3352   1.371   .     A
C3322  C3353   1.369   .     A
O3323  Al3393  1.958   1_655 S
O3323  C3354   1.300   .     A
O3324  C3355   1.300   .     A
O3324  Al3562  1.788   .     S
C3325  C3326   1.371   .     A
C3325  C3357   1.371   .     A
C3326  C3358   1.369   .     A
O3327  Al3338  1.958   .     S
O3327  C3359   1.300   .     A
O3328  C3360   1.300   .     A
O3328  Al481   1.788   1_656 S
C3329  C3330   1.371   .     A
C3329  C3342   1.371   .     A
C3330  C3343   1.369   .     A
O3331  Al651   1.958   1_556 S
O3331  C3344   1.300   .     A
O3332  C3345   1.300   .     A
O3332  Al3340  1.788   .     S
C3333  C3334   1.371   .     A
C3333  C3347   1.371   .     A
C3334  C3348   1.369   .     A
O3335  Al3340  1.958   .     S
O3335  C3349   1.300   .     A
O3336  C3350   1.300   .     A
O3336  Al3339  1.788   .     S
Al3338 O3356   1.844   .     S
Al3340 O3356   1.844   .     S
Al3340 O3346   1.844   .     S
O3341  Al3169  1.844   1_655 S
O3341  Al3171  1.844   1_655 S
C3342  C3344   1.500   .     S
C3343  C3345   1.500   .     S
O3346  Al3562  1.844   .     S
C3347  C3349   1.500   .     S
C3348  C3350   1.500   .     S
O3351  Al651   1.844   1_556 S
O3351  Al873   1.844   1_556 S
C3352  C3354   1.500   .     S
C3353  C3355   1.500   .     S
C3357  C3359   1.500   .     S
C3358  C3360   1.500   .     S
C3361  C3362   1.371   .     A
C3361  C3398   1.371   .     A
C3362  C3399   1.369   .     A
O3363  Al705   1.958   1_556 S
O3363  C3400   1.300   .     A
O3364  C3401   1.300   .     A
O3364  Al3394  1.788   .     S
C3365  C3366   1.371   .     A
C3365  C3403   1.371   .     A
C3366  C3404   1.369   .     A
O3367  Al2722  1.958   1_565 S
O3367  C3405   1.300   .     A
O3368  C3406   1.300   .     A
O3368  Al2721  1.788   1_565 S
C3369  C3370   1.371   .     A
C3369  C3408   1.371   .     A
C3370  C3409   1.369   .     A
O3371  Al3451  1.958   .     S
O3371  C3410   1.300   .     A
O3372  C3411   1.300   .     A
O3372  Al3396  1.788   .     S
C3373  C3374   1.371   .     A
C3373  C3413   1.371   .     A
C3374  C3414   1.369   .     A
O3375  Al3396  1.958   .     S
O3375  C3415   1.300   .     A
O3376  C3416   1.300   .     A
O3376  Al763   1.788   1_556 S
C3377  C3378   1.371   .     A
C3377  C3408   1.371   .     A
C3378  C3409   1.369   .     A
O3379  Al2777  1.958   1_565 S
O3379  C3410   1.300   .     A
O3380  C3411   1.300   .     A
O3380  Al2722  1.788   1_565 S
C3381  C3382   1.371   .     A
C3381  C3413   1.371   .     A
C3382  C3414   1.369   .     A
O3383  Al3394  1.958   .     S
O3383  C3415   1.300   .     A
O3384  C3416   1.300   .     A
O3384  Al761   1.788   1_556 S
C3385  C3386   1.371   .     A
C3385  C3398   1.371   .     A
C3386  C3399   1.369   .     A
O3387  Al707   1.958   1_556 S
O3387  C3400   1.300   .     A
O3388  C3401   1.300   .     A
O3388  Al3396  1.788   .     S
C3389  C3390   1.371   .     A
C3389  C3403   1.371   .     A
C3390  C3404   1.369   .     A
O3391  Al3396  1.958   .     S
O3391  C3405   1.300   .     A
O3392  C3406   1.300   .     A
O3392  Al3395  1.788   .     S
Al3393 O3323   1.958   1_455 S
Al3393 O3565   1.844   1_455 S
Al3393 O2656   1.788   1_455 S
Al3394 O3412   1.844   .     S
Al3395 O3539   1.958   1_455 S
Al3395 O3565   1.844   1_455 S
Al3395 O2648   1.788   1_455 S
Al3396 O3412   1.844   .     S
Al3396 O3402   1.844   .     S
O3397  Al3449  1.844   .     S
O3397  Al3451  1.844   .     S
C3398  C3400   1.500   .     S
C3399  C3401   1.500   .     S
O3402  Al2722  1.844   1_565 S
C3403  C3405   1.500   .     S
C3404  C3406   1.500   .     S
O3407  Al707   1.844   1_556 S
O3407  Al33    1.844   1_566 S
C3408  C3410   1.500   .     S
C3409  C3411   1.500   .     S
C3413  C3415   1.500   .     S
C3414  C3416   1.500   .     S
C3417  C3418   1.371   .     A
C3417  C3454   1.371   .     A
C3418  C3455   1.369   .     A
O3419  Al761   1.958   1_556 S
O3419  C3456   1.300   .     A
O3420  C3457   1.300   .     A
O3420  Al3450  1.788   .     S
C3421  C3422   1.371   .     A
C3421  C3459   1.371   .     A
C3422  C3460   1.369   .     A
O3423  Al2778  1.958   1_565 S
O3423  C3461   1.300   .     A
O3424  C3462   1.300   .     A
O3424  Al2777  1.788   1_565 S
C3425  C3426   1.371   .     A
C3425  C3464   1.371   .     A
C3426  C3465   1.369   .     A
O3427  Al3507  1.958   .     S
O3427  C3466   1.300   .     A
O3428  C3467   1.300   .     A
O3428  Al3452  1.788   .     S
C3429  C3430   1.371   .     A
C3429  C3469   1.371   .     A
C3430  C3470   1.369   .     A
O3431  Al3452  1.958   .     S
O3431  C3471   1.300   .     A
O3432  C3472   1.300   .     A
O3432  Al819   1.788   1_556 S
C3433  C3434   1.371   .     A
C3433  C3464   1.371   .     A
C3434  C3465   1.369   .     A
O3435  Al2833  1.958   1_565 S
O3435  C3466   1.300   .     A
O3436  C3467   1.300   .     A
O3436  Al2778  1.788   1_565 S
C3437  C3438   1.371   .     A
C3437  C3469   1.371   .     A
C3438  C3470   1.369   .     A
O3439  Al3450  1.958   .     S
O3439  C3471   1.300   .     A
O3440  C3472   1.300   .     A
O3440  Al817   1.788   1_556 S
C3441  C3442   1.371   .     A
C3441  C3454   1.371   .     A
C3442  C3455   1.369   .     A
O3443  Al763   1.958   1_556 S
O3443  C3456   1.300   .     A
O3444  C3457   1.300   .     A
O3444  Al3452  1.788   .     S
C3445  C3446   1.371   .     A
C3445  C3459   1.371   .     A
C3446  C3460   1.369   .     A
O3447  Al3452  1.958   .     S
O3447  C3461   1.300   .     A
O3448  C3462   1.300   .     A
O3448  Al3451  1.788   .     S
Al3450 O3468   1.844   .     S
Al3452 O3468   1.844   .     S
Al3452 O3458   1.844   .     S
O3453  Al3505  1.844   .     S
O3453  Al3507  1.844   .     S
C3454  C3456   1.500   .     S
C3455  C3457   1.500   .     S
O3458  Al2778  1.844   1_565 S
C3459  C3461   1.500   .     S
C3460  C3462   1.500   .     S
O3463  Al763   1.844   1_556 S
O3463  Al89    1.844   1_566 S
C3464  C3466   1.500   .     S
C3465  C3467   1.500   .     S
C3469  C3471   1.500   .     S
C3470  C3472   1.500   .     S
C3473  C3474   1.371   .     A
C3473  C3510   1.371   .     A
C3474  C3511   1.369   .     A
O3475  Al817   1.958   1_556 S
O3475  C3512   1.300   .     A
O3476  C3513   1.300   .     A
O3476  Al3506  1.788   .     S
C3477  C3478   1.371   .     A
C3477  C3515   1.371   .     A
C3478  C3516   1.369   .     A
O3479  Al2834  1.958   1_565 S
O3479  C3517   1.300   .     A
O3480  C3518   1.300   .     A
O3480  Al2833  1.788   1_565 S
C3481  C3482   1.371   .     A
C3481  C3520   1.371   .     A
C3482  C3521   1.369   .     A
O3483  Al3563  1.958   .     S
O3483  C3522   1.300   .     A
O3484  C3523   1.300   .     A
O3484  Al3508  1.788   .     S
C3485  C3486   1.371   .     A
C3485  C3525   1.371   .     A
C3486  C3526   1.369   .     A
O3487  Al3508  1.958   .     S
O3487  C3527   1.300   .     A
O3488  C3528   1.300   .     A
O3488  Al875   1.788   1_556 S
C3489  C3490   1.371   .     A
C3489  C3520   1.371   .     A
C3490  C3521   1.369   .     A
O3491  Al2889  1.958   1_565 S
O3491  C3522   1.300   .     A
O3492  C3523   1.300   .     A
O3492  Al2834  1.788   1_565 S
C3493  C3494   1.371   .     A
C3493  C3525   1.371   .     A
C3494  C3526   1.369   .     A
O3495  Al3506  1.958   .     S
O3495  C3527   1.300   .     A
O3496  C3528   1.300   .     A
O3496  Al873   1.788   1_556 S
C3497  C3498   1.371   .     A
C3497  C3510   1.371   .     A
C3498  C3511   1.369   .     A
O3499  Al819   1.958   1_556 S
O3499  C3512   1.300   .     A
O3500  C3513   1.300   .     A
O3500  Al3508  1.788   .     S
C3501  C3502   1.371   .     A
C3501  C3515   1.371   .     A
C3502  C3516   1.369   .     A
O3503  Al3508  1.958   .     S
O3503  C3517   1.300   .     A
O3504  C3518   1.300   .     A
O3504  Al3507  1.788   .     S
Al3506 O3524   1.844   .     S
Al3508 O3524   1.844   .     S
Al3508 O3514   1.844   .     S
O3509  Al3561  1.844   .     S
O3509  Al3563  1.844   .     S
C3510  C3512   1.500   .     S
C3511  C3513   1.500   .     S
O3514  Al2834  1.844   1_565 S
C3515  C3517   1.500   .     S
C3516  C3518   1.500   .     S
O3519  Al819   1.844   1_556 S
O3519  Al145   1.844   1_566 S
C3520  C3522   1.500   .     S
C3521  C3523   1.500   .     S
C3525  C3527   1.500   .     S
C3526  C3528   1.500   .     S
C3529  C3530   1.371   .     A
C3529  C3566   1.371   .     A
C3530  C3567   1.369   .     A
O3531  Al873   1.958   1_556 S
O3531  C3568   1.300   .     A
O3532  C3569   1.300   .     A
O3532  Al3562  1.788   .     S
C3533  C3534   1.371   .     A
C3533  C3571   1.371   .     A
C3534  C3572   1.369   .     A
O3535  Al2890  1.958   1_565 S
O3535  C3573   1.300   .     A
O3536  C3574   1.300   .     A
O3536  Al2889  1.788   1_565 S
C3537  C3538   1.371   .     A
C3537  C3576   1.371   .     A
C3538  C3577   1.369   .     A
O3539  Al3395  1.958   1_655 S
O3539  C3578   1.300   .     A
O3540  C3579   1.300   .     A
O3540  Al3564  1.788   .     S
C3541  C3542   1.371   .     A
C3541  C3581   1.371   .     A
C3542  C3582   1.369   .     A
O3543  Al3564  1.958   .     S
O3543  C3583   1.300   .     A
O3544  C3584   1.300   .     A
O3544  Al707   1.788   1_656 S
C3545  C3546   1.371   .     A
C3545  C3576   1.371   .     A
C3546  C3577   1.369   .     A
O3547  Al2721  1.958   1_665 S
O3547  C3578   1.300   .     A
O3548  C3579   1.300   .     A
O3548  Al2890  1.788   1_565 S
C3549  C3550   1.371   .     A
C3549  C3581   1.371   .     A
C3550  C3582   1.369   .     A
O3551  Al3562  1.958   .     S
O3551  C3583   1.300   .     A
O3552  C3584   1.300   .     A
O3552  Al705   1.788   1_656 S
C3553  C3554   1.371   .     A
C3553  C3566   1.371   .     A
C3554  C3567   1.369   .     A
O3555  Al875   1.958   1_556 S
O3555  C3568   1.300   .     A
O3556  C3569   1.300   .     A
O3556  Al3564  1.788   .     S
C3557  C3558   1.371   .     A
C3557  C3571   1.371   .     A
C3558  C3572   1.369   .     A
O3559  Al3564  1.958   .     S
O3559  C3573   1.300   .     A
O3560  C3574   1.300   .     A
O3560  Al3563  1.788   .     S
Al3562 O3580   1.844   .     S
Al3564 O3580   1.844   .     S
Al3564 O3570   1.844   .     S
O3565  Al3393  1.844   1_655 S
O3565  Al3395  1.844   1_655 S
C3566  C3568   1.500   .     S
C3567  C3569   1.500   .     S
O3570  Al2890  1.844   1_565 S
C3571  C3573   1.500   .     S
C3572  C3574   1.500   .     S
O3575  Al875   1.844   1_556 S
O3575  Al201   1.844   1_566 S
C3576  C3578   1.500   .     S
C3577  C3579   1.500   .     S
C3581  C3583   1.500   .     S
C3582  C3584   1.500   .     S
