data_EGELUY01_4-4-4
_audit_creation_date              2020-05-22
_audit_creation_method            'Materials Studio'
_symmetry_space_group_name_H-M    'P1'
_symmetry_Int_Tables_number       1
_symmetry_cell_setting            triclinic
loop_
_symmetry_equiv_pos_as_xyz
  x,y,z
_cell_length_a                    26.4872
_cell_length_b                    64.8592
_cell_length_c                    54.3544
_cell_angle_alpha                 90.0000
_cell_angle_beta                  90.0000
_cell_angle_gamma                 90.0000
loop_
_atom_site_label
_atom_site_type_symbol
_atom_site_fract_x
_atom_site_fract_y
_atom_site_fract_z
_atom_site_U_iso_or_equiv
_atom_site_adp_type
_atom_site_occupancy
C1     C     0.20521   0.00736   0.24097   0.00000  Uiso   1.00
C2     C     0.04250   0.03780   0.20355   0.00000  Uiso   1.00
O3     O     0.20750   0.03780   0.20355   0.00000  Uiso   1.00
C4     C     0.08021   0.13236   0.11597   0.00000  Uiso   1.00
C5     C     0.16750   0.16280   0.07855   0.00000  Uiso   1.00
O6     O     0.08250   0.16280   0.07855   0.00000  Uiso   1.00
C7     C     0.04479   0.11764   0.24097   0.00000  Uiso   1.00
C8     C     0.20750   0.08720   0.20355   0.00000  Uiso   1.00
O9     O     0.04250   0.08720   0.20355   0.00000  Uiso   1.00
C10    C     0.16979   0.24264   0.11597   0.00000  Uiso   1.00
C11    C     0.08250   0.21220   0.07855   0.00000  Uiso   1.00
O12    O     0.16750   0.21220   0.07855   0.00000  Uiso   1.00
C13    C     0.04479   0.13236   0.00903   0.00000  Uiso   1.00
C14    C     0.20750   0.16280   0.04645   0.00000  Uiso   1.00
O15    O     0.04250   0.16280   0.04645   0.00000  Uiso   1.00
C16    C     0.16979   0.00736   0.13403   0.00000  Uiso   1.00
C17    C     0.08250   0.03780   0.17145   0.00000  Uiso   1.00
O18    O     0.16750   0.03780   0.17145   0.00000  Uiso   1.00
C19    C     0.20521   0.24264   0.00903   0.00000  Uiso   1.00
C20    C     0.04250   0.21220   0.04645   0.00000  Uiso   1.00
O21    O     0.20750   0.21220   0.04645   0.00000  Uiso   1.00
C22    C     0.08021   0.11764   0.13403   0.00000  Uiso   1.00
C23    C     0.16750   0.08720   0.17145   0.00000  Uiso   1.00
O24    O     0.08250   0.08720   0.17145   0.00000  Uiso   1.00
C25    C     0.04479   0.24264   0.00903   0.00000  Uiso   1.00
C26    C     0.20750   0.21220   0.04645   0.00000  Uiso   1.00
O27    O     0.04250   0.21220   0.04645   0.00000  Uiso   1.00
C28    C     0.16979   0.11764   0.13403   0.00000  Uiso   1.00
C29    C     0.08250   0.08720   0.17145   0.00000  Uiso   1.00
O30    O     0.16750   0.08720   0.17145   0.00000  Uiso   1.00
C31    C     0.20521   0.13236   0.00903   0.00000  Uiso   1.00
C32    C     0.04250   0.16280   0.04645   0.00000  Uiso   1.00
O33    O     0.20750   0.16280   0.04645   0.00000  Uiso   1.00
C34    C     0.08021   0.00736   0.13403   0.00000  Uiso   1.00
C35    C     0.16750   0.03780   0.17145   0.00000  Uiso   1.00
O36    O     0.08250   0.03780   0.17145   0.00000  Uiso   1.00
C37    C     0.20521   0.11764   0.24097   0.00000  Uiso   1.00
C38    C     0.04250   0.08720   0.20355   0.00000  Uiso   1.00
O39    O     0.20750   0.08720   0.20355   0.00000  Uiso   1.00
C40    C     0.08021   0.24264   0.11597   0.00000  Uiso   1.00
C41    C     0.16750   0.21220   0.07855   0.00000  Uiso   1.00
O42    O     0.08250   0.21220   0.07855   0.00000  Uiso   1.00
C43    C     0.04479   0.00736   0.24097   0.00000  Uiso   1.00
C44    C     0.20750   0.03780   0.20355   0.00000  Uiso   1.00
O45    O     0.04250   0.03780   0.20355   0.00000  Uiso   1.00
C46    C     0.16979   0.13236   0.11597   0.00000  Uiso   1.00
C47    C     0.08250   0.16280   0.07855   0.00000  Uiso   1.00
O48    O     0.16750   0.16280   0.07855   0.00000  Uiso   1.00
Al49   Al    0.06250   0.06250   0.18750   0.00000  Uiso   1.00
Al50   Al    0.18750   0.06250   0.18750   0.00000  Uiso   1.00
Al51   Al    0.18750   0.18750   0.06250   0.00000  Uiso   1.00
Al52   Al    0.06250   0.18750   0.06250   0.00000  Uiso   1.00
O53    O     0.00000   0.06250   0.16824   0.00000  Uiso   1.00
O54    O     0.12500   0.18750   0.04325   0.00000  Uiso   1.00
O55    O     0.00000   0.18750   0.08176   0.00000  Uiso   1.00
O56    O     0.12500   0.06250   0.20676   0.00000  Uiso   1.00
C57    C     0.00000   0.01472   0.23192   0.00000  Uiso   1.00
C58    C     0.00000   0.03082   0.21212   0.00000  Uiso   1.00
C59    C     0.12500   0.13972   0.10693   0.00000  Uiso   1.00
C60    C     0.12500   0.15582   0.08712   0.00000  Uiso   1.00
C61    C     0.00000   0.11028   0.23192   0.00000  Uiso   1.00
C62    C     0.00000   0.09418   0.21212   0.00000  Uiso   1.00
C63    C     0.12500   0.23528   0.10693   0.00000  Uiso   1.00
C64    C     0.12500   0.21917   0.08712   0.00000  Uiso   1.00
C65    C     0.00000   0.13972   0.01808   0.00000  Uiso   1.00
C66    C     0.00000   0.15582   0.03788   0.00000  Uiso   1.00
C67    C     0.12500   0.01472   0.14308   0.00000  Uiso   1.00
C68    C     0.12500   0.03082   0.16287   0.00000  Uiso   1.00
C69    C     0.00000   0.23528   0.01808   0.00000  Uiso   1.00
C70    C     0.00000   0.21917   0.03788   0.00000  Uiso   1.00
C71    C     0.12500   0.11028   0.14308   0.00000  Uiso   1.00
C72    C     0.12500   0.09418   0.16287   0.00000  Uiso   1.00
C73    C     0.45521   0.00736   0.24097   0.00000  Uiso   1.00
C74    C     0.29250   0.03780   0.20355   0.00000  Uiso   1.00
O75    O     0.45750   0.03780   0.20355   0.00000  Uiso   1.00
C76    C     0.33021   0.13236   0.11597   0.00000  Uiso   1.00
C77    C     0.41750   0.16280   0.07855   0.00000  Uiso   1.00
O78    O     0.33250   0.16280   0.07855   0.00000  Uiso   1.00
C79    C     0.29479   0.11764   0.24097   0.00000  Uiso   1.00
C80    C     0.45750   0.08720   0.20355   0.00000  Uiso   1.00
O81    O     0.29250   0.08720   0.20355   0.00000  Uiso   1.00
C82    C     0.41979   0.24264   0.11597   0.00000  Uiso   1.00
C83    C     0.33250   0.21220   0.07855   0.00000  Uiso   1.00
O84    O     0.41750   0.21220   0.07855   0.00000  Uiso   1.00
C85    C     0.29479   0.13236   0.00903   0.00000  Uiso   1.00
C86    C     0.45750   0.16280   0.04645   0.00000  Uiso   1.00
O87    O     0.29250   0.16280   0.04645   0.00000  Uiso   1.00
C88    C     0.41979   0.00736   0.13403   0.00000  Uiso   1.00
C89    C     0.33250   0.03780   0.17145   0.00000  Uiso   1.00
O90    O     0.41750   0.03780   0.17145   0.00000  Uiso   1.00
C91    C     0.45521   0.24264   0.00903   0.00000  Uiso   1.00
C92    C     0.29250   0.21220   0.04645   0.00000  Uiso   1.00
O93    O     0.45750   0.21220   0.04645   0.00000  Uiso   1.00
C94    C     0.33021   0.11764   0.13403   0.00000  Uiso   1.00
C95    C     0.41750   0.08720   0.17145   0.00000  Uiso   1.00
O96    O     0.33250   0.08720   0.17145   0.00000  Uiso   1.00
C97    C     0.29479   0.24264   0.00903   0.00000  Uiso   1.00
C98    C     0.45750   0.21220   0.04645   0.00000  Uiso   1.00
O99    O     0.29250   0.21220   0.04645   0.00000  Uiso   1.00
C100   C     0.41979   0.11764   0.13403   0.00000  Uiso   1.00
C101   C     0.33250   0.08720   0.17145   0.00000  Uiso   1.00
O102   O     0.41750   0.08720   0.17145   0.00000  Uiso   1.00
C103   C     0.45521   0.13236   0.00903   0.00000  Uiso   1.00
C104   C     0.29250   0.16280   0.04645   0.00000  Uiso   1.00
O105   O     0.45750   0.16280   0.04645   0.00000  Uiso   1.00
C106   C     0.33021   0.00736   0.13403   0.00000  Uiso   1.00
C107   C     0.41750   0.03780   0.17145   0.00000  Uiso   1.00
O108   O     0.33250   0.03780   0.17145   0.00000  Uiso   1.00
C109   C     0.45521   0.11764   0.24097   0.00000  Uiso   1.00
C110   C     0.29250   0.08720   0.20355   0.00000  Uiso   1.00
O111   O     0.45750   0.08720   0.20355   0.00000  Uiso   1.00
C112   C     0.33021   0.24264   0.11597   0.00000  Uiso   1.00
C113   C     0.41750   0.21220   0.07855   0.00000  Uiso   1.00
O114   O     0.33250   0.21220   0.07855   0.00000  Uiso   1.00
C115   C     0.29479   0.00736   0.24097   0.00000  Uiso   1.00
C116   C     0.45750   0.03780   0.20355   0.00000  Uiso   1.00
O117   O     0.29250   0.03780   0.20355   0.00000  Uiso   1.00
C118   C     0.41979   0.13236   0.11597   0.00000  Uiso   1.00
C119   C     0.33250   0.16280   0.07855   0.00000  Uiso   1.00
O120   O     0.41750   0.16280   0.07855   0.00000  Uiso   1.00
Al121  Al    0.31250   0.06250   0.18750   0.00000  Uiso   1.00
Al122  Al    0.43750   0.06250   0.18750   0.00000  Uiso   1.00
Al123  Al    0.43750   0.18750   0.06250   0.00000  Uiso   1.00
Al124  Al    0.31250   0.18750   0.06250   0.00000  Uiso   1.00
O125   O     0.25000   0.06250   0.16824   0.00000  Uiso   1.00
O126   O     0.37500   0.18750   0.04325   0.00000  Uiso   1.00
O127   O     0.25000   0.18750   0.08176   0.00000  Uiso   1.00
O128   O     0.37500   0.06250   0.20676   0.00000  Uiso   1.00
C129   C     0.25000   0.01472   0.23192   0.00000  Uiso   1.00
C130   C     0.25000   0.03082   0.21212   0.00000  Uiso   1.00
C131   C     0.37500   0.13972   0.10693   0.00000  Uiso   1.00
C132   C     0.37500   0.15582   0.08712   0.00000  Uiso   1.00
C133   C     0.25000   0.11028   0.23192   0.00000  Uiso   1.00
C134   C     0.25000   0.09418   0.21212   0.00000  Uiso   1.00
C135   C     0.37500   0.23528   0.10693   0.00000  Uiso   1.00
C136   C     0.37500   0.21917   0.08712   0.00000  Uiso   1.00
C137   C     0.25000   0.13972   0.01808   0.00000  Uiso   1.00
C138   C     0.25000   0.15582   0.03788   0.00000  Uiso   1.00
C139   C     0.37500   0.01472   0.14308   0.00000  Uiso   1.00
C140   C     0.37500   0.03082   0.16287   0.00000  Uiso   1.00
C141   C     0.25000   0.23528   0.01808   0.00000  Uiso   1.00
C142   C     0.25000   0.21917   0.03788   0.00000  Uiso   1.00
C143   C     0.37500   0.11028   0.14308   0.00000  Uiso   1.00
C144   C     0.37500   0.09418   0.16287   0.00000  Uiso   1.00
C145   C     0.70521   0.00736   0.24097   0.00000  Uiso   1.00
C146   C     0.54250   0.03780   0.20355   0.00000  Uiso   1.00
O147   O     0.70750   0.03780   0.20355   0.00000  Uiso   1.00
C148   C     0.58021   0.13236   0.11597   0.00000  Uiso   1.00
C149   C     0.66750   0.16280   0.07855   0.00000  Uiso   1.00
O150   O     0.58250   0.16280   0.07855   0.00000  Uiso   1.00
C151   C     0.54479   0.11764   0.24097   0.00000  Uiso   1.00
C152   C     0.70750   0.08720   0.20355   0.00000  Uiso   1.00
O153   O     0.54250   0.08720   0.20355   0.00000  Uiso   1.00
C154   C     0.66979   0.24264   0.11597   0.00000  Uiso   1.00
C155   C     0.58250   0.21220   0.07855   0.00000  Uiso   1.00
O156   O     0.66750   0.21220   0.07855   0.00000  Uiso   1.00
C157   C     0.54479   0.13236   0.00903   0.00000  Uiso   1.00
C158   C     0.70750   0.16280   0.04645   0.00000  Uiso   1.00
O159   O     0.54250   0.16280   0.04645   0.00000  Uiso   1.00
C160   C     0.66979   0.00736   0.13403   0.00000  Uiso   1.00
C161   C     0.58250   0.03780   0.17145   0.00000  Uiso   1.00
O162   O     0.66750   0.03780   0.17145   0.00000  Uiso   1.00
C163   C     0.70521   0.24264   0.00903   0.00000  Uiso   1.00
C164   C     0.54250   0.21220   0.04645   0.00000  Uiso   1.00
O165   O     0.70750   0.21220   0.04645   0.00000  Uiso   1.00
C166   C     0.58021   0.11764   0.13403   0.00000  Uiso   1.00
C167   C     0.66750   0.08720   0.17145   0.00000  Uiso   1.00
O168   O     0.58250   0.08720   0.17145   0.00000  Uiso   1.00
C169   C     0.54479   0.24264   0.00903   0.00000  Uiso   1.00
C170   C     0.70750   0.21220   0.04645   0.00000  Uiso   1.00
O171   O     0.54250   0.21220   0.04645   0.00000  Uiso   1.00
C172   C     0.66979   0.11764   0.13403   0.00000  Uiso   1.00
C173   C     0.58250   0.08720   0.17145   0.00000  Uiso   1.00
O174   O     0.66750   0.08720   0.17145   0.00000  Uiso   1.00
C175   C     0.70521   0.13236   0.00903   0.00000  Uiso   1.00
C176   C     0.54250   0.16280   0.04645   0.00000  Uiso   1.00
O177   O     0.70750   0.16280   0.04645   0.00000  Uiso   1.00
C178   C     0.58021   0.00736   0.13403   0.00000  Uiso   1.00
C179   C     0.66750   0.03780   0.17145   0.00000  Uiso   1.00
O180   O     0.58250   0.03780   0.17145   0.00000  Uiso   1.00
C181   C     0.70521   0.11764   0.24097   0.00000  Uiso   1.00
C182   C     0.54250   0.08720   0.20355   0.00000  Uiso   1.00
O183   O     0.70750   0.08720   0.20355   0.00000  Uiso   1.00
C184   C     0.58021   0.24264   0.11597   0.00000  Uiso   1.00
C185   C     0.66750   0.21220   0.07855   0.00000  Uiso   1.00
O186   O     0.58250   0.21220   0.07855   0.00000  Uiso   1.00
C187   C     0.54479   0.00736   0.24097   0.00000  Uiso   1.00
C188   C     0.70750   0.03780   0.20355   0.00000  Uiso   1.00
O189   O     0.54250   0.03780   0.20355   0.00000  Uiso   1.00
C190   C     0.66979   0.13236   0.11597   0.00000  Uiso   1.00
C191   C     0.58250   0.16280   0.07855   0.00000  Uiso   1.00
O192   O     0.66750   0.16280   0.07855   0.00000  Uiso   1.00
Al193  Al    0.56250   0.06250   0.18750   0.00000  Uiso   1.00
Al194  Al    0.68750   0.06250   0.18750   0.00000  Uiso   1.00
Al195  Al    0.68750   0.18750   0.06250   0.00000  Uiso   1.00
Al196  Al    0.56250   0.18750   0.06250   0.00000  Uiso   1.00
O197   O     0.50000   0.06250   0.16824   0.00000  Uiso   1.00
O198   O     0.62500   0.18750   0.04325   0.00000  Uiso   1.00
O199   O     0.50000   0.18750   0.08176   0.00000  Uiso   1.00
O200   O     0.62500   0.06250   0.20676   0.00000  Uiso   1.00
C201   C     0.50000   0.01472   0.23192   0.00000  Uiso   1.00
C202   C     0.50000   0.03082   0.21212   0.00000  Uiso   1.00
C203   C     0.62500   0.13972   0.10693   0.00000  Uiso   1.00
C204   C     0.62500   0.15582   0.08712   0.00000  Uiso   1.00
C205   C     0.50000   0.11028   0.23192   0.00000  Uiso   1.00
C206   C     0.50000   0.09418   0.21212   0.00000  Uiso   1.00
C207   C     0.62500   0.23528   0.10693   0.00000  Uiso   1.00
C208   C     0.62500   0.21917   0.08712   0.00000  Uiso   1.00
C209   C     0.50000   0.13972   0.01808   0.00000  Uiso   1.00
C210   C     0.50000   0.15582   0.03788   0.00000  Uiso   1.00
C211   C     0.62500   0.01472   0.14308   0.00000  Uiso   1.00
C212   C     0.62500   0.03082   0.16287   0.00000  Uiso   1.00
C213   C     0.50000   0.23528   0.01808   0.00000  Uiso   1.00
C214   C     0.50000   0.21917   0.03788   0.00000  Uiso   1.00
C215   C     0.62500   0.11028   0.14308   0.00000  Uiso   1.00
C216   C     0.62500   0.09418   0.16287   0.00000  Uiso   1.00
C217   C     0.95521   0.00736   0.24097   0.00000  Uiso   1.00
C218   C     0.79250   0.03780   0.20355   0.00000  Uiso   1.00
O219   O     0.95750   0.03780   0.20355   0.00000  Uiso   1.00
C220   C     0.83021   0.13236   0.11597   0.00000  Uiso   1.00
C221   C     0.91750   0.16280   0.07855   0.00000  Uiso   1.00
O222   O     0.83250   0.16280   0.07855   0.00000  Uiso   1.00
C223   C     0.79479   0.11764   0.24097   0.00000  Uiso   1.00
C224   C     0.95750   0.08720   0.20355   0.00000  Uiso   1.00
O225   O     0.79250   0.08720   0.20355   0.00000  Uiso   1.00
C226   C     0.91979   0.24264   0.11597   0.00000  Uiso   1.00
C227   C     0.83250   0.21220   0.07855   0.00000  Uiso   1.00
O228   O     0.91750   0.21220   0.07855   0.00000  Uiso   1.00
C229   C     0.79479   0.13236   0.00903   0.00000  Uiso   1.00
C230   C     0.95750   0.16280   0.04645   0.00000  Uiso   1.00
O231   O     0.79250   0.16280   0.04645   0.00000  Uiso   1.00
C232   C     0.91979   0.00736   0.13403   0.00000  Uiso   1.00
C233   C     0.83250   0.03780   0.17145   0.00000  Uiso   1.00
O234   O     0.91750   0.03780   0.17145   0.00000  Uiso   1.00
C235   C     0.95521   0.24264   0.00903   0.00000  Uiso   1.00
C236   C     0.79250   0.21220   0.04645   0.00000  Uiso   1.00
O237   O     0.95750   0.21220   0.04645   0.00000  Uiso   1.00
C238   C     0.83021   0.11764   0.13403   0.00000  Uiso   1.00
C239   C     0.91750   0.08720   0.17145   0.00000  Uiso   1.00
O240   O     0.83250   0.08720   0.17145   0.00000  Uiso   1.00
C241   C     0.79479   0.24264   0.00903   0.00000  Uiso   1.00
C242   C     0.95750   0.21220   0.04645   0.00000  Uiso   1.00
O243   O     0.79250   0.21220   0.04645   0.00000  Uiso   1.00
C244   C     0.91979   0.11764   0.13403   0.00000  Uiso   1.00
C245   C     0.83250   0.08720   0.17145   0.00000  Uiso   1.00
O246   O     0.91750   0.08720   0.17145   0.00000  Uiso   1.00
C247   C     0.95521   0.13236   0.00903   0.00000  Uiso   1.00
C248   C     0.79250   0.16280   0.04645   0.00000  Uiso   1.00
O249   O     0.95750   0.16280   0.04645   0.00000  Uiso   1.00
C250   C     0.83021   0.00736   0.13403   0.00000  Uiso   1.00
C251   C     0.91750   0.03780   0.17145   0.00000  Uiso   1.00
O252   O     0.83250   0.03780   0.17145   0.00000  Uiso   1.00
C253   C     0.95521   0.11764   0.24097   0.00000  Uiso   1.00
C254   C     0.79250   0.08720   0.20355   0.00000  Uiso   1.00
O255   O     0.95750   0.08720   0.20355   0.00000  Uiso   1.00
C256   C     0.83021   0.24264   0.11597   0.00000  Uiso   1.00
C257   C     0.91750   0.21220   0.07855   0.00000  Uiso   1.00
O258   O     0.83250   0.21220   0.07855   0.00000  Uiso   1.00
C259   C     0.79479   0.00736   0.24097   0.00000  Uiso   1.00
C260   C     0.95750   0.03780   0.20355   0.00000  Uiso   1.00
O261   O     0.79250   0.03780   0.20355   0.00000  Uiso   1.00
C262   C     0.91979   0.13236   0.11597   0.00000  Uiso   1.00
C263   C     0.83250   0.16280   0.07855   0.00000  Uiso   1.00
O264   O     0.91750   0.16280   0.07855   0.00000  Uiso   1.00
Al265  Al    0.81250   0.06250   0.18750   0.00000  Uiso   1.00
Al266  Al    0.93750   0.06250   0.18750   0.00000  Uiso   1.00
Al267  Al    0.93750   0.18750   0.06250   0.00000  Uiso   1.00
Al268  Al    0.81250   0.18750   0.06250   0.00000  Uiso   1.00
O269   O     0.75000   0.06250   0.16824   0.00000  Uiso   1.00
O270   O     0.87500   0.18750   0.04325   0.00000  Uiso   1.00
O271   O     0.75000   0.18750   0.08176   0.00000  Uiso   1.00
O272   O     0.87500   0.06250   0.20676   0.00000  Uiso   1.00
C273   C     0.75000   0.01472   0.23192   0.00000  Uiso   1.00
C274   C     0.75000   0.03082   0.21212   0.00000  Uiso   1.00
C275   C     0.87500   0.13972   0.10693   0.00000  Uiso   1.00
C276   C     0.87500   0.15582   0.08712   0.00000  Uiso   1.00
C277   C     0.75000   0.11028   0.23192   0.00000  Uiso   1.00
C278   C     0.75000   0.09418   0.21212   0.00000  Uiso   1.00
C279   C     0.87500   0.23528   0.10693   0.00000  Uiso   1.00
C280   C     0.87500   0.21917   0.08712   0.00000  Uiso   1.00
C281   C     0.75000   0.13972   0.01808   0.00000  Uiso   1.00
C282   C     0.75000   0.15582   0.03788   0.00000  Uiso   1.00
C283   C     0.87500   0.01472   0.14308   0.00000  Uiso   1.00
C284   C     0.87500   0.03082   0.16287   0.00000  Uiso   1.00
C285   C     0.75000   0.23528   0.01808   0.00000  Uiso   1.00
C286   C     0.75000   0.21917   0.03788   0.00000  Uiso   1.00
C287   C     0.87500   0.11028   0.14308   0.00000  Uiso   1.00
C288   C     0.87500   0.09418   0.16287   0.00000  Uiso   1.00
C289   C     0.20521   0.25736   0.24097   0.00000  Uiso   1.00
C290   C     0.04250   0.28780   0.20355   0.00000  Uiso   1.00
O291   O     0.20750   0.28780   0.20355   0.00000  Uiso   1.00
C292   C     0.08021   0.38236   0.11597   0.00000  Uiso   1.00
C293   C     0.16750   0.41280   0.07855   0.00000  Uiso   1.00
O294   O     0.08250   0.41280   0.07855   0.00000  Uiso   1.00
C295   C     0.04479   0.36764   0.24097   0.00000  Uiso   1.00
C296   C     0.20750   0.33720   0.20355   0.00000  Uiso   1.00
O297   O     0.04250   0.33720   0.20355   0.00000  Uiso   1.00
C298   C     0.16979   0.49264   0.11597   0.00000  Uiso   1.00
C299   C     0.08250   0.46220   0.07855   0.00000  Uiso   1.00
O300   O     0.16750   0.46220   0.07855   0.00000  Uiso   1.00
C301   C     0.04479   0.38236   0.00903   0.00000  Uiso   1.00
C302   C     0.20750   0.41280   0.04645   0.00000  Uiso   1.00
O303   O     0.04250   0.41280   0.04645   0.00000  Uiso   1.00
C304   C     0.16979   0.25736   0.13403   0.00000  Uiso   1.00
C305   C     0.08250   0.28780   0.17145   0.00000  Uiso   1.00
O306   O     0.16750   0.28780   0.17145   0.00000  Uiso   1.00
C307   C     0.20521   0.49264   0.00903   0.00000  Uiso   1.00
C308   C     0.04250   0.46220   0.04645   0.00000  Uiso   1.00
O309   O     0.20750   0.46220   0.04645   0.00000  Uiso   1.00
C310   C     0.08021   0.36764   0.13403   0.00000  Uiso   1.00
C311   C     0.16750   0.33720   0.17145   0.00000  Uiso   1.00
O312   O     0.08250   0.33720   0.17145   0.00000  Uiso   1.00
C313   C     0.04479   0.49264   0.00903   0.00000  Uiso   1.00
C314   C     0.20750   0.46220   0.04645   0.00000  Uiso   1.00
O315   O     0.04250   0.46220   0.04645   0.00000  Uiso   1.00
C316   C     0.16979   0.36764   0.13403   0.00000  Uiso   1.00
C317   C     0.08250   0.33720   0.17145   0.00000  Uiso   1.00
O318   O     0.16750   0.33720   0.17145   0.00000  Uiso   1.00
C319   C     0.20521   0.38236   0.00903   0.00000  Uiso   1.00
C320   C     0.04250   0.41280   0.04645   0.00000  Uiso   1.00
O321   O     0.20750   0.41280   0.04645   0.00000  Uiso   1.00
C322   C     0.08021   0.25736   0.13403   0.00000  Uiso   1.00
C323   C     0.16750   0.28780   0.17145   0.00000  Uiso   1.00
O324   O     0.08250   0.28780   0.17145   0.00000  Uiso   1.00
C325   C     0.20521   0.36764   0.24097   0.00000  Uiso   1.00
C326   C     0.04250   0.33720   0.20355   0.00000  Uiso   1.00
O327   O     0.20750   0.33720   0.20355   0.00000  Uiso   1.00
C328   C     0.08021   0.49264   0.11597   0.00000  Uiso   1.00
C329   C     0.16750   0.46220   0.07855   0.00000  Uiso   1.00
O330   O     0.08250   0.46220   0.07855   0.00000  Uiso   1.00
C331   C     0.04479   0.25736   0.24097   0.00000  Uiso   1.00
C332   C     0.20750   0.28780   0.20355   0.00000  Uiso   1.00
O333   O     0.04250   0.28780   0.20355   0.00000  Uiso   1.00
C334   C     0.16979   0.38236   0.11597   0.00000  Uiso   1.00
C335   C     0.08250   0.41280   0.07855   0.00000  Uiso   1.00
O336   O     0.16750   0.41280   0.07855   0.00000  Uiso   1.00
Al337  Al    0.06250   0.31250   0.18750   0.00000  Uiso   1.00
Al338  Al    0.18750   0.31250   0.18750   0.00000  Uiso   1.00
Al339  Al    0.18750   0.43750   0.06250   0.00000  Uiso   1.00
Al340  Al    0.06250   0.43750   0.06250   0.00000  Uiso   1.00
O341   O     0.00000   0.31250   0.16824   0.00000  Uiso   1.00
O342   O     0.12500   0.43750   0.04325   0.00000  Uiso   1.00
O343   O     0.00000   0.43750   0.08176   0.00000  Uiso   1.00
O344   O     0.12500   0.31250   0.20676   0.00000  Uiso   1.00
C345   C     0.00000   0.26472   0.23192   0.00000  Uiso   1.00
C346   C     0.00000   0.28082   0.21212   0.00000  Uiso   1.00
C347   C     0.12500   0.38972   0.10693   0.00000  Uiso   1.00
C348   C     0.12500   0.40582   0.08712   0.00000  Uiso   1.00
C349   C     0.00000   0.36028   0.23192   0.00000  Uiso   1.00
C350   C     0.00000   0.34417   0.21212   0.00000  Uiso   1.00
C351   C     0.12500   0.48528   0.10693   0.00000  Uiso   1.00
C352   C     0.12500   0.46917   0.08712   0.00000  Uiso   1.00
C353   C     0.00000   0.38972   0.01808   0.00000  Uiso   1.00
C354   C     0.00000   0.40582   0.03788   0.00000  Uiso   1.00
C355   C     0.12500   0.26472   0.14308   0.00000  Uiso   1.00
C356   C     0.12500   0.28082   0.16287   0.00000  Uiso   1.00
C357   C     0.00000   0.48528   0.01808   0.00000  Uiso   1.00
C358   C     0.00000   0.46917   0.03788   0.00000  Uiso   1.00
C359   C     0.12500   0.36028   0.14308   0.00000  Uiso   1.00
C360   C     0.12500   0.34417   0.16287   0.00000  Uiso   1.00
C361   C     0.45521   0.25736   0.24097   0.00000  Uiso   1.00
C362   C     0.29250   0.28780   0.20355   0.00000  Uiso   1.00
O363   O     0.45750   0.28780   0.20355   0.00000  Uiso   1.00
C364   C     0.33021   0.38236   0.11597   0.00000  Uiso   1.00
C365   C     0.41750   0.41280   0.07855   0.00000  Uiso   1.00
O366   O     0.33250   0.41280   0.07855   0.00000  Uiso   1.00
C367   C     0.29479   0.36764   0.24097   0.00000  Uiso   1.00
C368   C     0.45750   0.33720   0.20355   0.00000  Uiso   1.00
O369   O     0.29250   0.33720   0.20355   0.00000  Uiso   1.00
C370   C     0.41979   0.49264   0.11597   0.00000  Uiso   1.00
C371   C     0.33250   0.46220   0.07855   0.00000  Uiso   1.00
O372   O     0.41750   0.46220   0.07855   0.00000  Uiso   1.00
C373   C     0.29479   0.38236   0.00903   0.00000  Uiso   1.00
C374   C     0.45750   0.41280   0.04645   0.00000  Uiso   1.00
O375   O     0.29250   0.41280   0.04645   0.00000  Uiso   1.00
C376   C     0.41979   0.25736   0.13403   0.00000  Uiso   1.00
C377   C     0.33250   0.28780   0.17145   0.00000  Uiso   1.00
O378   O     0.41750   0.28780   0.17145   0.00000  Uiso   1.00
C379   C     0.45521   0.49264   0.00903   0.00000  Uiso   1.00
C380   C     0.29250   0.46220   0.04645   0.00000  Uiso   1.00
O381   O     0.45750   0.46220   0.04645   0.00000  Uiso   1.00
C382   C     0.33021   0.36764   0.13403   0.00000  Uiso   1.00
C383   C     0.41750   0.33720   0.17145   0.00000  Uiso   1.00
O384   O     0.33250   0.33720   0.17145   0.00000  Uiso   1.00
C385   C     0.29479   0.49264   0.00903   0.00000  Uiso   1.00
C386   C     0.45750   0.46220   0.04645   0.00000  Uiso   1.00
O387   O     0.29250   0.46220   0.04645   0.00000  Uiso   1.00
C388   C     0.41979   0.36764   0.13403   0.00000  Uiso   1.00
C389   C     0.33250   0.33720   0.17145   0.00000  Uiso   1.00
O390   O     0.41750   0.33720   0.17145   0.00000  Uiso   1.00
C391   C     0.45521   0.38236   0.00903   0.00000  Uiso   1.00
C392   C     0.29250   0.41280   0.04645   0.00000  Uiso   1.00
O393   O     0.45750   0.41280   0.04645   0.00000  Uiso   1.00
C394   C     0.33021   0.25736   0.13403   0.00000  Uiso   1.00
C395   C     0.41750   0.28780   0.17145   0.00000  Uiso   1.00
O396   O     0.33250   0.28780   0.17145   0.00000  Uiso   1.00
C397   C     0.45521   0.36764   0.24097   0.00000  Uiso   1.00
C398   C     0.29250   0.33720   0.20355   0.00000  Uiso   1.00
O399   O     0.45750   0.33720   0.20355   0.00000  Uiso   1.00
C400   C     0.33021   0.49264   0.11597   0.00000  Uiso   1.00
C401   C     0.41750   0.46220   0.07855   0.00000  Uiso   1.00
O402   O     0.33250   0.46220   0.07855   0.00000  Uiso   1.00
C403   C     0.29479   0.25736   0.24097   0.00000  Uiso   1.00
C404   C     0.45750   0.28780   0.20355   0.00000  Uiso   1.00
O405   O     0.29250   0.28780   0.20355   0.00000  Uiso   1.00
C406   C     0.41979   0.38236   0.11597   0.00000  Uiso   1.00
C407   C     0.33250   0.41280   0.07855   0.00000  Uiso   1.00
O408   O     0.41750   0.41280   0.07855   0.00000  Uiso   1.00
Al409  Al    0.31250   0.31250   0.18750   0.00000  Uiso   1.00
Al410  Al    0.43750   0.31250   0.18750   0.00000  Uiso   1.00
Al411  Al    0.43750   0.43750   0.06250   0.00000  Uiso   1.00
Al412  Al    0.31250   0.43750   0.06250   0.00000  Uiso   1.00
O413   O     0.25000   0.31250   0.16824   0.00000  Uiso   1.00
O414   O     0.37500   0.43750   0.04325   0.00000  Uiso   1.00
O415   O     0.25000   0.43750   0.08176   0.00000  Uiso   1.00
O416   O     0.37500   0.31250   0.20676   0.00000  Uiso   1.00
C417   C     0.25000   0.26472   0.23192   0.00000  Uiso   1.00
C418   C     0.25000   0.28082   0.21212   0.00000  Uiso   1.00
C419   C     0.37500   0.38972   0.10693   0.00000  Uiso   1.00
C420   C     0.37500   0.40582   0.08712   0.00000  Uiso   1.00
C421   C     0.25000   0.36028   0.23192   0.00000  Uiso   1.00
C422   C     0.25000   0.34417   0.21212   0.00000  Uiso   1.00
C423   C     0.37500   0.48528   0.10693   0.00000  Uiso   1.00
C424   C     0.37500   0.46917   0.08712   0.00000  Uiso   1.00
C425   C     0.25000   0.38972   0.01808   0.00000  Uiso   1.00
C426   C     0.25000   0.40582   0.03788   0.00000  Uiso   1.00
C427   C     0.37500   0.26472   0.14308   0.00000  Uiso   1.00
C428   C     0.37500   0.28082   0.16287   0.00000  Uiso   1.00
C429   C     0.25000   0.48528   0.01808   0.00000  Uiso   1.00
C430   C     0.25000   0.46917   0.03788   0.00000  Uiso   1.00
C431   C     0.37500   0.36028   0.14308   0.00000  Uiso   1.00
C432   C     0.37500   0.34417   0.16287   0.00000  Uiso   1.00
C433   C     0.70521   0.25736   0.24097   0.00000  Uiso   1.00
C434   C     0.54250   0.28780   0.20355   0.00000  Uiso   1.00
O435   O     0.70750   0.28780   0.20355   0.00000  Uiso   1.00
C436   C     0.58021   0.38236   0.11597   0.00000  Uiso   1.00
C437   C     0.66750   0.41280   0.07855   0.00000  Uiso   1.00
O438   O     0.58250   0.41280   0.07855   0.00000  Uiso   1.00
C439   C     0.54479   0.36764   0.24097   0.00000  Uiso   1.00
C440   C     0.70750   0.33720   0.20355   0.00000  Uiso   1.00
O441   O     0.54250   0.33720   0.20355   0.00000  Uiso   1.00
C442   C     0.66979   0.49264   0.11597   0.00000  Uiso   1.00
C443   C     0.58250   0.46220   0.07855   0.00000  Uiso   1.00
O444   O     0.66750   0.46220   0.07855   0.00000  Uiso   1.00
C445   C     0.54479   0.38236   0.00903   0.00000  Uiso   1.00
C446   C     0.70750   0.41280   0.04645   0.00000  Uiso   1.00
O447   O     0.54250   0.41280   0.04645   0.00000  Uiso   1.00
C448   C     0.66979   0.25736   0.13403   0.00000  Uiso   1.00
C449   C     0.58250   0.28780   0.17145   0.00000  Uiso   1.00
O450   O     0.66750   0.28780   0.17145   0.00000  Uiso   1.00
C451   C     0.70521   0.49264   0.00903   0.00000  Uiso   1.00
C452   C     0.54250   0.46220   0.04645   0.00000  Uiso   1.00
O453   O     0.70750   0.46220   0.04645   0.00000  Uiso   1.00
C454   C     0.58021   0.36764   0.13403   0.00000  Uiso   1.00
C455   C     0.66750   0.33720   0.17145   0.00000  Uiso   1.00
O456   O     0.58250   0.33720   0.17145   0.00000  Uiso   1.00
C457   C     0.54479   0.49264   0.00903   0.00000  Uiso   1.00
C458   C     0.70750   0.46220   0.04645   0.00000  Uiso   1.00
O459   O     0.54250   0.46220   0.04645   0.00000  Uiso   1.00
C460   C     0.66979   0.36764   0.13403   0.00000  Uiso   1.00
C461   C     0.58250   0.33720   0.17145   0.00000  Uiso   1.00
O462   O     0.66750   0.33720   0.17145   0.00000  Uiso   1.00
C463   C     0.70521   0.38236   0.00903   0.00000  Uiso   1.00
C464   C     0.54250   0.41280   0.04645   0.00000  Uiso   1.00
O465   O     0.70750   0.41280   0.04645   0.00000  Uiso   1.00
C466   C     0.58021   0.25736   0.13403   0.00000  Uiso   1.00
C467   C     0.66750   0.28780   0.17145   0.00000  Uiso   1.00
O468   O     0.58250   0.28780   0.17145   0.00000  Uiso   1.00
C469   C     0.70521   0.36764   0.24097   0.00000  Uiso   1.00
C470   C     0.54250   0.33720   0.20355   0.00000  Uiso   1.00
O471   O     0.70750   0.33720   0.20355   0.00000  Uiso   1.00
C472   C     0.58021   0.49264   0.11597   0.00000  Uiso   1.00
C473   C     0.66750   0.46220   0.07855   0.00000  Uiso   1.00
O474   O     0.58250   0.46220   0.07855   0.00000  Uiso   1.00
C475   C     0.54479   0.25736   0.24097   0.00000  Uiso   1.00
C476   C     0.70750   0.28780   0.20355   0.00000  Uiso   1.00
O477   O     0.54250   0.28780   0.20355   0.00000  Uiso   1.00
C478   C     0.66979   0.38236   0.11597   0.00000  Uiso   1.00
C479   C     0.58250   0.41280   0.07855   0.00000  Uiso   1.00
O480   O     0.66750   0.41280   0.07855   0.00000  Uiso   1.00
Al481  Al    0.56250   0.31250   0.18750   0.00000  Uiso   1.00
Al482  Al    0.68750   0.31250   0.18750   0.00000  Uiso   1.00
Al483  Al    0.68750   0.43750   0.06250   0.00000  Uiso   1.00
Al484  Al    0.56250   0.43750   0.06250   0.00000  Uiso   1.00
O485   O     0.50000   0.31250   0.16824   0.00000  Uiso   1.00
O486   O     0.62500   0.43750   0.04325   0.00000  Uiso   1.00
O487   O     0.50000   0.43750   0.08176   0.00000  Uiso   1.00
O488   O     0.62500   0.31250   0.20676   0.00000  Uiso   1.00
C489   C     0.50000   0.26472   0.23192   0.00000  Uiso   1.00
C490   C     0.50000   0.28082   0.21212   0.00000  Uiso   1.00
C491   C     0.62500   0.38972   0.10693   0.00000  Uiso   1.00
C492   C     0.62500   0.40582   0.08712   0.00000  Uiso   1.00
C493   C     0.50000   0.36028   0.23192   0.00000  Uiso   1.00
C494   C     0.50000   0.34417   0.21212   0.00000  Uiso   1.00
C495   C     0.62500   0.48528   0.10693   0.00000  Uiso   1.00
C496   C     0.62500   0.46917   0.08712   0.00000  Uiso   1.00
C497   C     0.50000   0.38972   0.01808   0.00000  Uiso   1.00
C498   C     0.50000   0.40582   0.03788   0.00000  Uiso   1.00
C499   C     0.62500   0.26472   0.14308   0.00000  Uiso   1.00
C500   C     0.62500   0.28082   0.16287   0.00000  Uiso   1.00
C501   C     0.50000   0.48528   0.01808   0.00000  Uiso   1.00
C502   C     0.50000   0.46917   0.03788   0.00000  Uiso   1.00
C503   C     0.62500   0.36028   0.14308   0.00000  Uiso   1.00
C504   C     0.62500   0.34417   0.16287   0.00000  Uiso   1.00
C505   C     0.95521   0.25736   0.24097   0.00000  Uiso   1.00
C506   C     0.79250   0.28780   0.20355   0.00000  Uiso   1.00
O507   O     0.95750   0.28780   0.20355   0.00000  Uiso   1.00
C508   C     0.83021   0.38236   0.11597   0.00000  Uiso   1.00
C509   C     0.91750   0.41280   0.07855   0.00000  Uiso   1.00
O510   O     0.83250   0.41280   0.07855   0.00000  Uiso   1.00
C511   C     0.79479   0.36764   0.24097   0.00000  Uiso   1.00
C512   C     0.95750   0.33720   0.20355   0.00000  Uiso   1.00
O513   O     0.79250   0.33720   0.20355   0.00000  Uiso   1.00
C514   C     0.91979   0.49264   0.11597   0.00000  Uiso   1.00
C515   C     0.83250   0.46220   0.07855   0.00000  Uiso   1.00
O516   O     0.91750   0.46220   0.07855   0.00000  Uiso   1.00
C517   C     0.79479   0.38236   0.00903   0.00000  Uiso   1.00
C518   C     0.95750   0.41280   0.04645   0.00000  Uiso   1.00
O519   O     0.79250   0.41280   0.04645   0.00000  Uiso   1.00
C520   C     0.91979   0.25736   0.13403   0.00000  Uiso   1.00
C521   C     0.83250   0.28780   0.17145   0.00000  Uiso   1.00
O522   O     0.91750   0.28780   0.17145   0.00000  Uiso   1.00
C523   C     0.95521   0.49264   0.00903   0.00000  Uiso   1.00
C524   C     0.79250   0.46220   0.04645   0.00000  Uiso   1.00
O525   O     0.95750   0.46220   0.04645   0.00000  Uiso   1.00
C526   C     0.83021   0.36764   0.13403   0.00000  Uiso   1.00
C527   C     0.91750   0.33720   0.17145   0.00000  Uiso   1.00
O528   O     0.83250   0.33720   0.17145   0.00000  Uiso   1.00
C529   C     0.79479   0.49264   0.00903   0.00000  Uiso   1.00
C530   C     0.95750   0.46220   0.04645   0.00000  Uiso   1.00
O531   O     0.79250   0.46220   0.04645   0.00000  Uiso   1.00
C532   C     0.91979   0.36764   0.13403   0.00000  Uiso   1.00
C533   C     0.83250   0.33720   0.17145   0.00000  Uiso   1.00
O534   O     0.91750   0.33720   0.17145   0.00000  Uiso   1.00
C535   C     0.95521   0.38236   0.00903   0.00000  Uiso   1.00
C536   C     0.79250   0.41280   0.04645   0.00000  Uiso   1.00
O537   O     0.95750   0.41280   0.04645   0.00000  Uiso   1.00
C538   C     0.83021   0.25736   0.13403   0.00000  Uiso   1.00
C539   C     0.91750   0.28780   0.17145   0.00000  Uiso   1.00
O540   O     0.83250   0.28780   0.17145   0.00000  Uiso   1.00
C541   C     0.95521   0.36764   0.24097   0.00000  Uiso   1.00
C542   C     0.79250   0.33720   0.20355   0.00000  Uiso   1.00
O543   O     0.95750   0.33720   0.20355   0.00000  Uiso   1.00
C544   C     0.83021   0.49264   0.11597   0.00000  Uiso   1.00
C545   C     0.91750   0.46220   0.07855   0.00000  Uiso   1.00
O546   O     0.83250   0.46220   0.07855   0.00000  Uiso   1.00
C547   C     0.79479   0.25736   0.24097   0.00000  Uiso   1.00
C548   C     0.95750   0.28780   0.20355   0.00000  Uiso   1.00
O549   O     0.79250   0.28780   0.20355   0.00000  Uiso   1.00
C550   C     0.91979   0.38236   0.11597   0.00000  Uiso   1.00
C551   C     0.83250   0.41280   0.07855   0.00000  Uiso   1.00
O552   O     0.91750   0.41280   0.07855   0.00000  Uiso   1.00
Al553  Al    0.81250   0.31250   0.18750   0.00000  Uiso   1.00
Al554  Al    0.93750   0.31250   0.18750   0.00000  Uiso   1.00
Al555  Al    0.93750   0.43750   0.06250   0.00000  Uiso   1.00
Al556  Al    0.81250   0.43750   0.06250   0.00000  Uiso   1.00
O557   O     0.75000   0.31250   0.16824   0.00000  Uiso   1.00
O558   O     0.87500   0.43750   0.04325   0.00000  Uiso   1.00
O559   O     0.75000   0.43750   0.08176   0.00000  Uiso   1.00
O560   O     0.87500   0.31250   0.20676   0.00000  Uiso   1.00
C561   C     0.75000   0.26472   0.23192   0.00000  Uiso   1.00
C562   C     0.75000   0.28082   0.21212   0.00000  Uiso   1.00
C563   C     0.87500   0.38972   0.10693   0.00000  Uiso   1.00
C564   C     0.87500   0.40582   0.08712   0.00000  Uiso   1.00
C565   C     0.75000   0.36028   0.23192   0.00000  Uiso   1.00
C566   C     0.75000   0.34417   0.21212   0.00000  Uiso   1.00
C567   C     0.87500   0.48528   0.10693   0.00000  Uiso   1.00
C568   C     0.87500   0.46917   0.08712   0.00000  Uiso   1.00
C569   C     0.75000   0.38972   0.01808   0.00000  Uiso   1.00
C570   C     0.75000   0.40582   0.03788   0.00000  Uiso   1.00
C571   C     0.87500   0.26472   0.14308   0.00000  Uiso   1.00
C572   C     0.87500   0.28082   0.16287   0.00000  Uiso   1.00
C573   C     0.75000   0.48528   0.01808   0.00000  Uiso   1.00
C574   C     0.75000   0.46917   0.03788   0.00000  Uiso   1.00
C575   C     0.87500   0.36028   0.14308   0.00000  Uiso   1.00
C576   C     0.87500   0.34417   0.16287   0.00000  Uiso   1.00
C577   C     0.20521   0.50736   0.24097   0.00000  Uiso   1.00
C578   C     0.04250   0.53780   0.20355   0.00000  Uiso   1.00
O579   O     0.20750   0.53780   0.20355   0.00000  Uiso   1.00
C580   C     0.08021   0.63236   0.11597   0.00000  Uiso   1.00
C581   C     0.16750   0.66280   0.07855   0.00000  Uiso   1.00
O582   O     0.08250   0.66280   0.07855   0.00000  Uiso   1.00
C583   C     0.04479   0.61764   0.24097   0.00000  Uiso   1.00
C584   C     0.20750   0.58720   0.20355   0.00000  Uiso   1.00
O585   O     0.04250   0.58720   0.20355   0.00000  Uiso   1.00
C586   C     0.16979   0.74264   0.11597   0.00000  Uiso   1.00
C587   C     0.08250   0.71220   0.07855   0.00000  Uiso   1.00
O588   O     0.16750   0.71220   0.07855   0.00000  Uiso   1.00
C589   C     0.04479   0.63236   0.00903   0.00000  Uiso   1.00
C590   C     0.20750   0.66280   0.04645   0.00000  Uiso   1.00
O591   O     0.04250   0.66280   0.04645   0.00000  Uiso   1.00
C592   C     0.16979   0.50736   0.13403   0.00000  Uiso   1.00
C593   C     0.08250   0.53780   0.17145   0.00000  Uiso   1.00
O594   O     0.16750   0.53780   0.17145   0.00000  Uiso   1.00
C595   C     0.20521   0.74264   0.00903   0.00000  Uiso   1.00
C596   C     0.04250   0.71220   0.04645   0.00000  Uiso   1.00
O597   O     0.20750   0.71220   0.04645   0.00000  Uiso   1.00
C598   C     0.08021   0.61764   0.13403   0.00000  Uiso   1.00
C599   C     0.16750   0.58720   0.17145   0.00000  Uiso   1.00
O600   O     0.08250   0.58720   0.17145   0.00000  Uiso   1.00
C601   C     0.04479   0.74264   0.00903   0.00000  Uiso   1.00
C602   C     0.20750   0.71220   0.04645   0.00000  Uiso   1.00
O603   O     0.04250   0.71220   0.04645   0.00000  Uiso   1.00
C604   C     0.16979   0.61764   0.13403   0.00000  Uiso   1.00
C605   C     0.08250   0.58720   0.17145   0.00000  Uiso   1.00
O606   O     0.16750   0.58720   0.17145   0.00000  Uiso   1.00
C607   C     0.20521   0.63236   0.00903   0.00000  Uiso   1.00
C608   C     0.04250   0.66280   0.04645   0.00000  Uiso   1.00
O609   O     0.20750   0.66280   0.04645   0.00000  Uiso   1.00
C610   C     0.08021   0.50736   0.13403   0.00000  Uiso   1.00
C611   C     0.16750   0.53780   0.17145   0.00000  Uiso   1.00
O612   O     0.08250   0.53780   0.17145   0.00000  Uiso   1.00
C613   C     0.20521   0.61764   0.24097   0.00000  Uiso   1.00
C614   C     0.04250   0.58720   0.20355   0.00000  Uiso   1.00
O615   O     0.20750   0.58720   0.20355   0.00000  Uiso   1.00
C616   C     0.08021   0.74264   0.11597   0.00000  Uiso   1.00
C617   C     0.16750   0.71220   0.07855   0.00000  Uiso   1.00
O618   O     0.08250   0.71220   0.07855   0.00000  Uiso   1.00
C619   C     0.04479   0.50736   0.24097   0.00000  Uiso   1.00
C620   C     0.20750   0.53780   0.20355   0.00000  Uiso   1.00
O621   O     0.04250   0.53780   0.20355   0.00000  Uiso   1.00
C622   C     0.16979   0.63236   0.11597   0.00000  Uiso   1.00
C623   C     0.08250   0.66280   0.07855   0.00000  Uiso   1.00
O624   O     0.16750   0.66280   0.07855   0.00000  Uiso   1.00
Al625  Al    0.06250   0.56250   0.18750   0.00000  Uiso   1.00
Al626  Al    0.18750   0.56250   0.18750   0.00000  Uiso   1.00
Al627  Al    0.18750   0.68750   0.06250   0.00000  Uiso   1.00
Al628  Al    0.06250   0.68750   0.06250   0.00000  Uiso   1.00
O629   O     0.00000   0.56250   0.16824   0.00000  Uiso   1.00
O630   O     0.12500   0.68750   0.04325   0.00000  Uiso   1.00
O631   O     0.00000   0.68750   0.08176   0.00000  Uiso   1.00
O632   O     0.12500   0.56250   0.20676   0.00000  Uiso   1.00
C633   C     0.00000   0.51472   0.23192   0.00000  Uiso   1.00
C634   C     0.00000   0.53082   0.21212   0.00000  Uiso   1.00
C635   C     0.12500   0.63972   0.10693   0.00000  Uiso   1.00
C636   C     0.12500   0.65582   0.08712   0.00000  Uiso   1.00
C637   C     0.00000   0.61028   0.23192   0.00000  Uiso   1.00
C638   C     0.00000   0.59418   0.21212   0.00000  Uiso   1.00
C639   C     0.12500   0.73528   0.10693   0.00000  Uiso   1.00
C640   C     0.12500   0.71917   0.08712   0.00000  Uiso   1.00
C641   C     0.00000   0.63972   0.01808   0.00000  Uiso   1.00
C642   C     0.00000   0.65582   0.03788   0.00000  Uiso   1.00
C643   C     0.12500   0.51472   0.14308   0.00000  Uiso   1.00
C644   C     0.12500   0.53082   0.16287   0.00000  Uiso   1.00
C645   C     0.00000   0.73528   0.01808   0.00000  Uiso   1.00
C646   C     0.00000   0.71917   0.03788   0.00000  Uiso   1.00
C647   C     0.12500   0.61028   0.14308   0.00000  Uiso   1.00
C648   C     0.12500   0.59418   0.16287   0.00000  Uiso   1.00
C649   C     0.45521   0.50736   0.24097   0.00000  Uiso   1.00
C650   C     0.29250   0.53780   0.20355   0.00000  Uiso   1.00
O651   O     0.45750   0.53780   0.20355   0.00000  Uiso   1.00
C652   C     0.33021   0.63236   0.11597   0.00000  Uiso   1.00
C653   C     0.41750   0.66280   0.07855   0.00000  Uiso   1.00
O654   O     0.33250   0.66280   0.07855   0.00000  Uiso   1.00
C655   C     0.29479   0.61764   0.24097   0.00000  Uiso   1.00
C656   C     0.45750   0.58720   0.20355   0.00000  Uiso   1.00
O657   O     0.29250   0.58720   0.20355   0.00000  Uiso   1.00
C658   C     0.41979   0.74264   0.11597   0.00000  Uiso   1.00
C659   C     0.33250   0.71220   0.07855   0.00000  Uiso   1.00
O660   O     0.41750   0.71220   0.07855   0.00000  Uiso   1.00
C661   C     0.29479   0.63236   0.00903   0.00000  Uiso   1.00
C662   C     0.45750   0.66280   0.04645   0.00000  Uiso   1.00
O663   O     0.29250   0.66280   0.04645   0.00000  Uiso   1.00
C664   C     0.41979   0.50736   0.13403   0.00000  Uiso   1.00
C665   C     0.33250   0.53780   0.17145   0.00000  Uiso   1.00
O666   O     0.41750   0.53780   0.17145   0.00000  Uiso   1.00
C667   C     0.45521   0.74264   0.00903   0.00000  Uiso   1.00
C668   C     0.29250   0.71220   0.04645   0.00000  Uiso   1.00
O669   O     0.45750   0.71220   0.04645   0.00000  Uiso   1.00
C670   C     0.33021   0.61764   0.13403   0.00000  Uiso   1.00
C671   C     0.41750   0.58720   0.17145   0.00000  Uiso   1.00
O672   O     0.33250   0.58720   0.17145   0.00000  Uiso   1.00
C673   C     0.29479   0.74264   0.00903   0.00000  Uiso   1.00
C674   C     0.45750   0.71220   0.04645   0.00000  Uiso   1.00
O675   O     0.29250   0.71220   0.04645   0.00000  Uiso   1.00
C676   C     0.41979   0.61764   0.13403   0.00000  Uiso   1.00
C677   C     0.33250   0.58720   0.17145   0.00000  Uiso   1.00
O678   O     0.41750   0.58720   0.17145   0.00000  Uiso   1.00
C679   C     0.45521   0.63236   0.00903   0.00000  Uiso   1.00
C680   C     0.29250   0.66280   0.04645   0.00000  Uiso   1.00
O681   O     0.45750   0.66280   0.04645   0.00000  Uiso   1.00
C682   C     0.33021   0.50736   0.13403   0.00000  Uiso   1.00
C683   C     0.41750   0.53780   0.17145   0.00000  Uiso   1.00
O684   O     0.33250   0.53780   0.17145   0.00000  Uiso   1.00
C685   C     0.45521   0.61764   0.24097   0.00000  Uiso   1.00
C686   C     0.29250   0.58720   0.20355   0.00000  Uiso   1.00
O687   O     0.45750   0.58720   0.20355   0.00000  Uiso   1.00
C688   C     0.33021   0.74264   0.11597   0.00000  Uiso   1.00
C689   C     0.41750   0.71220   0.07855   0.00000  Uiso   1.00
O690   O     0.33250   0.71220   0.07855   0.00000  Uiso   1.00
C691   C     0.29479   0.50736   0.24097   0.00000  Uiso   1.00
C692   C     0.45750   0.53780   0.20355   0.00000  Uiso   1.00
O693   O     0.29250   0.53780   0.20355   0.00000  Uiso   1.00
C694   C     0.41979   0.63236   0.11597   0.00000  Uiso   1.00
C695   C     0.33250   0.66280   0.07855   0.00000  Uiso   1.00
O696   O     0.41750   0.66280   0.07855   0.00000  Uiso   1.00
Al697  Al    0.31250   0.56250   0.18750   0.00000  Uiso   1.00
Al698  Al    0.43750   0.56250   0.18750   0.00000  Uiso   1.00
Al699  Al    0.43750   0.68750   0.06250   0.00000  Uiso   1.00
Al700  Al    0.31250   0.68750   0.06250   0.00000  Uiso   1.00
O701   O     0.25000   0.56250   0.16824   0.00000  Uiso   1.00
O702   O     0.37500   0.68750   0.04325   0.00000  Uiso   1.00
O703   O     0.25000   0.68750   0.08176   0.00000  Uiso   1.00
O704   O     0.37500   0.56250   0.20676   0.00000  Uiso   1.00
C705   C     0.25000   0.51472   0.23192   0.00000  Uiso   1.00
C706   C     0.25000   0.53082   0.21212   0.00000  Uiso   1.00
C707   C     0.37500   0.63972   0.10693   0.00000  Uiso   1.00
C708   C     0.37500   0.65582   0.08712   0.00000  Uiso   1.00
C709   C     0.25000   0.61028   0.23192   0.00000  Uiso   1.00
C710   C     0.25000   0.59418   0.21212   0.00000  Uiso   1.00
C711   C     0.37500   0.73528   0.10693   0.00000  Uiso   1.00
C712   C     0.37500   0.71917   0.08712   0.00000  Uiso   1.00
C713   C     0.25000   0.63972   0.01808   0.00000  Uiso   1.00
C714   C     0.25000   0.65582   0.03788   0.00000  Uiso   1.00
C715   C     0.37500   0.51472   0.14308   0.00000  Uiso   1.00
C716   C     0.37500   0.53082   0.16287   0.00000  Uiso   1.00
C717   C     0.25000   0.73528   0.01808   0.00000  Uiso   1.00
C718   C     0.25000   0.71917   0.03788   0.00000  Uiso   1.00
C719   C     0.37500   0.61028   0.14308   0.00000  Uiso   1.00
C720   C     0.37500   0.59418   0.16287   0.00000  Uiso   1.00
C721   C     0.70521   0.50736   0.24097   0.00000  Uiso   1.00
C722   C     0.54250   0.53780   0.20355   0.00000  Uiso   1.00
O723   O     0.70750   0.53780   0.20355   0.00000  Uiso   1.00
C724   C     0.58021   0.63236   0.11597   0.00000  Uiso   1.00
C725   C     0.66750   0.66280   0.07855   0.00000  Uiso   1.00
O726   O     0.58250   0.66280   0.07855   0.00000  Uiso   1.00
C727   C     0.54479   0.61764   0.24097   0.00000  Uiso   1.00
C728   C     0.70750   0.58720   0.20355   0.00000  Uiso   1.00
O729   O     0.54250   0.58720   0.20355   0.00000  Uiso   1.00
C730   C     0.66979   0.74264   0.11597   0.00000  Uiso   1.00
C731   C     0.58250   0.71220   0.07855   0.00000  Uiso   1.00
O732   O     0.66750   0.71220   0.07855   0.00000  Uiso   1.00
C733   C     0.54479   0.63236   0.00903   0.00000  Uiso   1.00
C734   C     0.70750   0.66280   0.04645   0.00000  Uiso   1.00
O735   O     0.54250   0.66280   0.04645   0.00000  Uiso   1.00
C736   C     0.66979   0.50736   0.13403   0.00000  Uiso   1.00
C737   C     0.58250   0.53780   0.17145   0.00000  Uiso   1.00
O738   O     0.66750   0.53780   0.17145   0.00000  Uiso   1.00
C739   C     0.70521   0.74264   0.00903   0.00000  Uiso   1.00
C740   C     0.54250   0.71220   0.04645   0.00000  Uiso   1.00
O741   O     0.70750   0.71220   0.04645   0.00000  Uiso   1.00
C742   C     0.58021   0.61764   0.13403   0.00000  Uiso   1.00
C743   C     0.66750   0.58720   0.17145   0.00000  Uiso   1.00
O744   O     0.58250   0.58720   0.17145   0.00000  Uiso   1.00
C745   C     0.54479   0.74264   0.00903   0.00000  Uiso   1.00
C746   C     0.70750   0.71220   0.04645   0.00000  Uiso   1.00
O747   O     0.54250   0.71220   0.04645   0.00000  Uiso   1.00
C748   C     0.66979   0.61764   0.13403   0.00000  Uiso   1.00
C749   C     0.58250   0.58720   0.17145   0.00000  Uiso   1.00
O750   O     0.66750   0.58720   0.17145   0.00000  Uiso   1.00
C751   C     0.70521   0.63236   0.00903   0.00000  Uiso   1.00
C752   C     0.54250   0.66280   0.04645   0.00000  Uiso   1.00
O753   O     0.70750   0.66280   0.04645   0.00000  Uiso   1.00
C754   C     0.58021   0.50736   0.13403   0.00000  Uiso   1.00
C755   C     0.66750   0.53780   0.17145   0.00000  Uiso   1.00
O756   O     0.58250   0.53780   0.17145   0.00000  Uiso   1.00
C757   C     0.70521   0.61764   0.24097   0.00000  Uiso   1.00
C758   C     0.54250   0.58720   0.20355   0.00000  Uiso   1.00
O759   O     0.70750   0.58720   0.20355   0.00000  Uiso   1.00
C760   C     0.58021   0.74264   0.11597   0.00000  Uiso   1.00
C761   C     0.66750   0.71220   0.07855   0.00000  Uiso   1.00
O762   O     0.58250   0.71220   0.07855   0.00000  Uiso   1.00
C763   C     0.54479   0.50736   0.24097   0.00000  Uiso   1.00
C764   C     0.70750   0.53780   0.20355   0.00000  Uiso   1.00
O765   O     0.54250   0.53780   0.20355   0.00000  Uiso   1.00
C766   C     0.66979   0.63236   0.11597   0.00000  Uiso   1.00
C767   C     0.58250   0.66280   0.07855   0.00000  Uiso   1.00
O768   O     0.66750   0.66280   0.07855   0.00000  Uiso   1.00
Al769  Al    0.56250   0.56250   0.18750   0.00000  Uiso   1.00
Al770  Al    0.68750   0.56250   0.18750   0.00000  Uiso   1.00
Al771  Al    0.68750   0.68750   0.06250   0.00000  Uiso   1.00
Al772  Al    0.56250   0.68750   0.06250   0.00000  Uiso   1.00
O773   O     0.50000   0.56250   0.16824   0.00000  Uiso   1.00
O774   O     0.62500   0.68750   0.04325   0.00000  Uiso   1.00
O775   O     0.50000   0.68750   0.08176   0.00000  Uiso   1.00
O776   O     0.62500   0.56250   0.20676   0.00000  Uiso   1.00
C777   C     0.50000   0.51472   0.23192   0.00000  Uiso   1.00
C778   C     0.50000   0.53082   0.21212   0.00000  Uiso   1.00
C779   C     0.62500   0.63972   0.10693   0.00000  Uiso   1.00
C780   C     0.62500   0.65582   0.08712   0.00000  Uiso   1.00
C781   C     0.50000   0.61028   0.23192   0.00000  Uiso   1.00
C782   C     0.50000   0.59418   0.21212   0.00000  Uiso   1.00
C783   C     0.62500   0.73528   0.10693   0.00000  Uiso   1.00
C784   C     0.62500   0.71917   0.08712   0.00000  Uiso   1.00
C785   C     0.50000   0.63972   0.01808   0.00000  Uiso   1.00
C786   C     0.50000   0.65582   0.03788   0.00000  Uiso   1.00
C787   C     0.62500   0.51472   0.14308   0.00000  Uiso   1.00
C788   C     0.62500   0.53082   0.16287   0.00000  Uiso   1.00
C789   C     0.50000   0.73528   0.01808   0.00000  Uiso   1.00
C790   C     0.50000   0.71917   0.03788   0.00000  Uiso   1.00
C791   C     0.62500   0.61028   0.14308   0.00000  Uiso   1.00
C792   C     0.62500   0.59418   0.16287   0.00000  Uiso   1.00
C793   C     0.95521   0.50736   0.24097   0.00000  Uiso   1.00
C794   C     0.79250   0.53780   0.20355   0.00000  Uiso   1.00
O795   O     0.95750   0.53780   0.20355   0.00000  Uiso   1.00
C796   C     0.83021   0.63236   0.11597   0.00000  Uiso   1.00
C797   C     0.91750   0.66280   0.07855   0.00000  Uiso   1.00
O798   O     0.83250   0.66280   0.07855   0.00000  Uiso   1.00
C799   C     0.79479   0.61764   0.24097   0.00000  Uiso   1.00
C800   C     0.95750   0.58720   0.20355   0.00000  Uiso   1.00
O801   O     0.79250   0.58720   0.20355   0.00000  Uiso   1.00
C802   C     0.91979   0.74264   0.11597   0.00000  Uiso   1.00
C803   C     0.83250   0.71220   0.07855   0.00000  Uiso   1.00
O804   O     0.91750   0.71220   0.07855   0.00000  Uiso   1.00
C805   C     0.79479   0.63236   0.00903   0.00000  Uiso   1.00
C806   C     0.95750   0.66280   0.04645   0.00000  Uiso   1.00
O807   O     0.79250   0.66280   0.04645   0.00000  Uiso   1.00
C808   C     0.91979   0.50736   0.13403   0.00000  Uiso   1.00
C809   C     0.83250   0.53780   0.17145   0.00000  Uiso   1.00
O810   O     0.91750   0.53780   0.17145   0.00000  Uiso   1.00
C811   C     0.95521   0.74264   0.00903   0.00000  Uiso   1.00
C812   C     0.79250   0.71220   0.04645   0.00000  Uiso   1.00
O813   O     0.95750   0.71220   0.04645   0.00000  Uiso   1.00
C814   C     0.83021   0.61764   0.13403   0.00000  Uiso   1.00
C815   C     0.91750   0.58720   0.17145   0.00000  Uiso   1.00
O816   O     0.83250   0.58720   0.17145   0.00000  Uiso   1.00
C817   C     0.79479   0.74264   0.00903   0.00000  Uiso   1.00
C818   C     0.95750   0.71220   0.04645   0.00000  Uiso   1.00
O819   O     0.79250   0.71220   0.04645   0.00000  Uiso   1.00
C820   C     0.91979   0.61764   0.13403   0.00000  Uiso   1.00
C821   C     0.83250   0.58720   0.17145   0.00000  Uiso   1.00
O822   O     0.91750   0.58720   0.17145   0.00000  Uiso   1.00
C823   C     0.95521   0.63236   0.00903   0.00000  Uiso   1.00
C824   C     0.79250   0.66280   0.04645   0.00000  Uiso   1.00
O825   O     0.95750   0.66280   0.04645   0.00000  Uiso   1.00
C826   C     0.83021   0.50736   0.13403   0.00000  Uiso   1.00
C827   C     0.91750   0.53780   0.17145   0.00000  Uiso   1.00
O828   O     0.83250   0.53780   0.17145   0.00000  Uiso   1.00
C829   C     0.95521   0.61764   0.24097   0.00000  Uiso   1.00
C830   C     0.79250   0.58720   0.20355   0.00000  Uiso   1.00
O831   O     0.95750   0.58720   0.20355   0.00000  Uiso   1.00
C832   C     0.83021   0.74264   0.11597   0.00000  Uiso   1.00
C833   C     0.91750   0.71220   0.07855   0.00000  Uiso   1.00
O834   O     0.83250   0.71220   0.07855   0.00000  Uiso   1.00
C835   C     0.79479   0.50736   0.24097   0.00000  Uiso   1.00
C836   C     0.95750   0.53780   0.20355   0.00000  Uiso   1.00
O837   O     0.79250   0.53780   0.20355   0.00000  Uiso   1.00
C838   C     0.91979   0.63236   0.11597   0.00000  Uiso   1.00
C839   C     0.83250   0.66280   0.07855   0.00000  Uiso   1.00
O840   O     0.91750   0.66280   0.07855   0.00000  Uiso   1.00
Al841  Al    0.81250   0.56250   0.18750   0.00000  Uiso   1.00
Al842  Al    0.93750   0.56250   0.18750   0.00000  Uiso   1.00
Al843  Al    0.93750   0.68750   0.06250   0.00000  Uiso   1.00
Al844  Al    0.81250   0.68750   0.06250   0.00000  Uiso   1.00
O845   O     0.75000   0.56250   0.16824   0.00000  Uiso   1.00
O846   O     0.87500   0.68750   0.04325   0.00000  Uiso   1.00
O847   O     0.75000   0.68750   0.08176   0.00000  Uiso   1.00
O848   O     0.87500   0.56250   0.20676   0.00000  Uiso   1.00
C849   C     0.75000   0.51472   0.23192   0.00000  Uiso   1.00
C850   C     0.75000   0.53082   0.21212   0.00000  Uiso   1.00
C851   C     0.87500   0.63972   0.10693   0.00000  Uiso   1.00
C852   C     0.87500   0.65582   0.08712   0.00000  Uiso   1.00
C853   C     0.75000   0.61028   0.23192   0.00000  Uiso   1.00
C854   C     0.75000   0.59418   0.21212   0.00000  Uiso   1.00
C855   C     0.87500   0.73528   0.10693   0.00000  Uiso   1.00
C856   C     0.87500   0.71917   0.08712   0.00000  Uiso   1.00
C857   C     0.75000   0.63972   0.01808   0.00000  Uiso   1.00
C858   C     0.75000   0.65582   0.03788   0.00000  Uiso   1.00
C859   C     0.87500   0.51472   0.14308   0.00000  Uiso   1.00
C860   C     0.87500   0.53082   0.16287   0.00000  Uiso   1.00
C861   C     0.75000   0.73528   0.01808   0.00000  Uiso   1.00
C862   C     0.75000   0.71917   0.03788   0.00000  Uiso   1.00
C863   C     0.87500   0.61028   0.14308   0.00000  Uiso   1.00
C864   C     0.87500   0.59418   0.16287   0.00000  Uiso   1.00
C865   C     0.20521   0.75736   0.24097   0.00000  Uiso   1.00
C866   C     0.04250   0.78780   0.20355   0.00000  Uiso   1.00
O867   O     0.20750   0.78780   0.20355   0.00000  Uiso   1.00
C868   C     0.08021   0.88236   0.11597   0.00000  Uiso   1.00
C869   C     0.16750   0.91280   0.07855   0.00000  Uiso   1.00
O870   O     0.08250   0.91280   0.07855   0.00000  Uiso   1.00
C871   C     0.04479   0.86764   0.24097   0.00000  Uiso   1.00
C872   C     0.20750   0.83720   0.20355   0.00000  Uiso   1.00
O873   O     0.04250   0.83720   0.20355   0.00000  Uiso   1.00
C874   C     0.16979   0.99264   0.11597   0.00000  Uiso   1.00
C875   C     0.08250   0.96220   0.07855   0.00000  Uiso   1.00
O876   O     0.16750   0.96220   0.07855   0.00000  Uiso   1.00
C877   C     0.04479   0.88236   0.00903   0.00000  Uiso   1.00
C878   C     0.20750   0.91280   0.04645   0.00000  Uiso   1.00
O879   O     0.04250   0.91280   0.04645   0.00000  Uiso   1.00
C880   C     0.16979   0.75736   0.13403   0.00000  Uiso   1.00
C881   C     0.08250   0.78780   0.17145   0.00000  Uiso   1.00
O882   O     0.16750   0.78780   0.17145   0.00000  Uiso   1.00
C883   C     0.20521   0.99264   0.00903   0.00000  Uiso   1.00
C884   C     0.04250   0.96220   0.04645   0.00000  Uiso   1.00
O885   O     0.20750   0.96220   0.04645   0.00000  Uiso   1.00
C886   C     0.08021   0.86764   0.13403   0.00000  Uiso   1.00
C887   C     0.16750   0.83720   0.17145   0.00000  Uiso   1.00
O888   O     0.08250   0.83720   0.17145   0.00000  Uiso   1.00
C889   C     0.04479   0.99264   0.00903   0.00000  Uiso   1.00
C890   C     0.20750   0.96220   0.04645   0.00000  Uiso   1.00
O891   O     0.04250   0.96220   0.04645   0.00000  Uiso   1.00
C892   C     0.16979   0.86764   0.13403   0.00000  Uiso   1.00
C893   C     0.08250   0.83720   0.17145   0.00000  Uiso   1.00
O894   O     0.16750   0.83720   0.17145   0.00000  Uiso   1.00
C895   C     0.20521   0.88236   0.00903   0.00000  Uiso   1.00
C896   C     0.04250   0.91280   0.04645   0.00000  Uiso   1.00
O897   O     0.20750   0.91280   0.04645   0.00000  Uiso   1.00
C898   C     0.08021   0.75736   0.13403   0.00000  Uiso   1.00
C899   C     0.16750   0.78780   0.17145   0.00000  Uiso   1.00
O900   O     0.08250   0.78780   0.17145   0.00000  Uiso   1.00
C901   C     0.20521   0.86764   0.24097   0.00000  Uiso   1.00
C902   C     0.04250   0.83720   0.20355   0.00000  Uiso   1.00
O903   O     0.20750   0.83720   0.20355   0.00000  Uiso   1.00
C904   C     0.08021   0.99264   0.11597   0.00000  Uiso   1.00
C905   C     0.16750   0.96220   0.07855   0.00000  Uiso   1.00
O906   O     0.08250   0.96220   0.07855   0.00000  Uiso   1.00
C907   C     0.04479   0.75736   0.24097   0.00000  Uiso   1.00
C908   C     0.20750   0.78780   0.20355   0.00000  Uiso   1.00
O909   O     0.04250   0.78780   0.20355   0.00000  Uiso   1.00
C910   C     0.16979   0.88236   0.11597   0.00000  Uiso   1.00
C911   C     0.08250   0.91280   0.07855   0.00000  Uiso   1.00
O912   O     0.16750   0.91280   0.07855   0.00000  Uiso   1.00
Al913  Al    0.06250   0.81250   0.18750   0.00000  Uiso   1.00
Al914  Al    0.18750   0.81250   0.18750   0.00000  Uiso   1.00
Al915  Al    0.18750   0.93750   0.06250   0.00000  Uiso   1.00
Al916  Al    0.06250   0.93750   0.06250   0.00000  Uiso   1.00
O917   O     0.00000   0.81250   0.16824   0.00000  Uiso   1.00
O918   O     0.12500   0.93750   0.04325   0.00000  Uiso   1.00
O919   O     0.00000   0.93750   0.08176   0.00000  Uiso   1.00
O920   O     0.12500   0.81250   0.20676   0.00000  Uiso   1.00
C921   C     0.00000   0.76472   0.23192   0.00000  Uiso   1.00
C922   C     0.00000   0.78082   0.21212   0.00000  Uiso   1.00
C923   C     0.12500   0.88972   0.10693   0.00000  Uiso   1.00
C924   C     0.12500   0.90582   0.08712   0.00000  Uiso   1.00
C925   C     0.00000   0.86028   0.23192   0.00000  Uiso   1.00
C926   C     0.00000   0.84418   0.21212   0.00000  Uiso   1.00
C927   C     0.12500   0.98528   0.10693   0.00000  Uiso   1.00
C928   C     0.12500   0.96917   0.08712   0.00000  Uiso   1.00
C929   C     0.00000   0.88972   0.01808   0.00000  Uiso   1.00
C930   C     0.00000   0.90582   0.03788   0.00000  Uiso   1.00
C931   C     0.12500   0.76472   0.14308   0.00000  Uiso   1.00
C932   C     0.12500   0.78082   0.16287   0.00000  Uiso   1.00
C933   C     0.00000   0.98528   0.01808   0.00000  Uiso   1.00
C934   C     0.00000   0.96917   0.03788   0.00000  Uiso   1.00
C935   C     0.12500   0.86028   0.14308   0.00000  Uiso   1.00
C936   C     0.12500   0.84418   0.16287   0.00000  Uiso   1.00
C937   C     0.45521   0.75736   0.24097   0.00000  Uiso   1.00
C938   C     0.29250   0.78780   0.20355   0.00000  Uiso   1.00
O939   O     0.45750   0.78780   0.20355   0.00000  Uiso   1.00
C940   C     0.33021   0.88236   0.11597   0.00000  Uiso   1.00
C941   C     0.41750   0.91280   0.07855   0.00000  Uiso   1.00
O942   O     0.33250   0.91280   0.07855   0.00000  Uiso   1.00
C943   C     0.29479   0.86764   0.24097   0.00000  Uiso   1.00
C944   C     0.45750   0.83720   0.20355   0.00000  Uiso   1.00
O945   O     0.29250   0.83720   0.20355   0.00000  Uiso   1.00
C946   C     0.41979   0.99264   0.11597   0.00000  Uiso   1.00
C947   C     0.33250   0.96220   0.07855   0.00000  Uiso   1.00
O948   O     0.41750   0.96220   0.07855   0.00000  Uiso   1.00
C949   C     0.29479   0.88236   0.00903   0.00000  Uiso   1.00
C950   C     0.45750   0.91280   0.04645   0.00000  Uiso   1.00
O951   O     0.29250   0.91280   0.04645   0.00000  Uiso   1.00
C952   C     0.41979   0.75736   0.13403   0.00000  Uiso   1.00
C953   C     0.33250   0.78780   0.17145   0.00000  Uiso   1.00
O954   O     0.41750   0.78780   0.17145   0.00000  Uiso   1.00
C955   C     0.45521   0.99264   0.00903   0.00000  Uiso   1.00
C956   C     0.29250   0.96220   0.04645   0.00000  Uiso   1.00
O957   O     0.45750   0.96220   0.04645   0.00000  Uiso   1.00
C958   C     0.33021   0.86764   0.13403   0.00000  Uiso   1.00
C959   C     0.41750   0.83720   0.17145   0.00000  Uiso   1.00
O960   O     0.33250   0.83720   0.17145   0.00000  Uiso   1.00
C961   C     0.29479   0.99264   0.00903   0.00000  Uiso   1.00
C962   C     0.45750   0.96220   0.04645   0.00000  Uiso   1.00
O963   O     0.29250   0.96220   0.04645   0.00000  Uiso   1.00
C964   C     0.41979   0.86764   0.13403   0.00000  Uiso   1.00
C965   C     0.33250   0.83720   0.17145   0.00000  Uiso   1.00
O966   O     0.41750   0.83720   0.17145   0.00000  Uiso   1.00
C967   C     0.45521   0.88236   0.00903   0.00000  Uiso   1.00
C968   C     0.29250   0.91280   0.04645   0.00000  Uiso   1.00
O969   O     0.45750   0.91280   0.04645   0.00000  Uiso   1.00
C970   C     0.33021   0.75736   0.13403   0.00000  Uiso   1.00
C971   C     0.41750   0.78780   0.17145   0.00000  Uiso   1.00
O972   O     0.33250   0.78780   0.17145   0.00000  Uiso   1.00
C973   C     0.45521   0.86764   0.24097   0.00000  Uiso   1.00
C974   C     0.29250   0.83720   0.20355   0.00000  Uiso   1.00
O975   O     0.45750   0.83720   0.20355   0.00000  Uiso   1.00
C976   C     0.33021   0.99264   0.11597   0.00000  Uiso   1.00
C977   C     0.41750   0.96220   0.07855   0.00000  Uiso   1.00
O978   O     0.33250   0.96220   0.07855   0.00000  Uiso   1.00
C979   C     0.29479   0.75736   0.24097   0.00000  Uiso   1.00
C980   C     0.45750   0.78780   0.20355   0.00000  Uiso   1.00
O981   O     0.29250   0.78780   0.20355   0.00000  Uiso   1.00
C982   C     0.41979   0.88236   0.11597   0.00000  Uiso   1.00
C983   C     0.33250   0.91280   0.07855   0.00000  Uiso   1.00
O984   O     0.41750   0.91280   0.07855   0.00000  Uiso   1.00
Al985  Al    0.31250   0.81250   0.18750   0.00000  Uiso   1.00
Al986  Al    0.43750   0.81250   0.18750   0.00000  Uiso   1.00
Al987  Al    0.43750   0.93750   0.06250   0.00000  Uiso   1.00
Al988  Al    0.31250   0.93750   0.06250   0.00000  Uiso   1.00
O989   O     0.25000   0.81250   0.16824   0.00000  Uiso   1.00
O990   O     0.37500   0.93750   0.04325   0.00000  Uiso   1.00
O991   O     0.25000   0.93750   0.08176   0.00000  Uiso   1.00
O992   O     0.37500   0.81250   0.20676   0.00000  Uiso   1.00
C993   C     0.25000   0.76472   0.23192   0.00000  Uiso   1.00
C994   C     0.25000   0.78082   0.21212   0.00000  Uiso   1.00
C995   C     0.37500   0.88972   0.10693   0.00000  Uiso   1.00
C996   C     0.37500   0.90582   0.08712   0.00000  Uiso   1.00
C997   C     0.25000   0.86028   0.23192   0.00000  Uiso   1.00
C998   C     0.25000   0.84418   0.21212   0.00000  Uiso   1.00
C999   C     0.37500   0.98528   0.10693   0.00000  Uiso   1.00
C1000  C     0.37500   0.96917   0.08712   0.00000  Uiso   1.00
C1001  C     0.25000   0.88972   0.01808   0.00000  Uiso   1.00
C1002  C     0.25000   0.90582   0.03788   0.00000  Uiso   1.00
C1003  C     0.37500   0.76472   0.14308   0.00000  Uiso   1.00
C1004  C     0.37500   0.78082   0.16287   0.00000  Uiso   1.00
C1005  C     0.25000   0.98528   0.01808   0.00000  Uiso   1.00
C1006  C     0.25000   0.96917   0.03788   0.00000  Uiso   1.00
C1007  C     0.37500   0.86028   0.14308   0.00000  Uiso   1.00
C1008  C     0.37500   0.84418   0.16287   0.00000  Uiso   1.00
C1009  C     0.70521   0.75736   0.24097   0.00000  Uiso   1.00
C1010  C     0.54250   0.78780   0.20355   0.00000  Uiso   1.00
O1011  O     0.70750   0.78780   0.20355   0.00000  Uiso   1.00
C1012  C     0.58021   0.88236   0.11597   0.00000  Uiso   1.00
C1013  C     0.66750   0.91280   0.07855   0.00000  Uiso   1.00
O1014  O     0.58250   0.91280   0.07855   0.00000  Uiso   1.00
C1015  C     0.54479   0.86764   0.24097   0.00000  Uiso   1.00
C1016  C     0.70750   0.83720   0.20355   0.00000  Uiso   1.00
O1017  O     0.54250   0.83720   0.20355   0.00000  Uiso   1.00
C1018  C     0.66979   0.99264   0.11597   0.00000  Uiso   1.00
C1019  C     0.58250   0.96220   0.07855   0.00000  Uiso   1.00
O1020  O     0.66750   0.96220   0.07855   0.00000  Uiso   1.00
C1021  C     0.54479   0.88236   0.00903   0.00000  Uiso   1.00
C1022  C     0.70750   0.91280   0.04645   0.00000  Uiso   1.00
O1023  O     0.54250   0.91280   0.04645   0.00000  Uiso   1.00
C1024  C     0.66979   0.75736   0.13403   0.00000  Uiso   1.00
C1025  C     0.58250   0.78780   0.17145   0.00000  Uiso   1.00
O1026  O     0.66750   0.78780   0.17145   0.00000  Uiso   1.00
C1027  C     0.70521   0.99264   0.00903   0.00000  Uiso   1.00
C1028  C     0.54250   0.96220   0.04645   0.00000  Uiso   1.00
O1029  O     0.70750   0.96220   0.04645   0.00000  Uiso   1.00
C1030  C     0.58021   0.86764   0.13403   0.00000  Uiso   1.00
C1031  C     0.66750   0.83720   0.17145   0.00000  Uiso   1.00
O1032  O     0.58250   0.83720   0.17145   0.00000  Uiso   1.00
C1033  C     0.54479   0.99264   0.00903   0.00000  Uiso   1.00
C1034  C     0.70750   0.96220   0.04645   0.00000  Uiso   1.00
O1035  O     0.54250   0.96220   0.04645   0.00000  Uiso   1.00
C1036  C     0.66979   0.86764   0.13403   0.00000  Uiso   1.00
C1037  C     0.58250   0.83720   0.17145   0.00000  Uiso   1.00
O1038  O     0.66750   0.83720   0.17145   0.00000  Uiso   1.00
C1039  C     0.70521   0.88236   0.00903   0.00000  Uiso   1.00
C1040  C     0.54250   0.91280   0.04645   0.00000  Uiso   1.00
O1041  O     0.70750   0.91280   0.04645   0.00000  Uiso   1.00
C1042  C     0.58021   0.75736   0.13403   0.00000  Uiso   1.00
C1043  C     0.66750   0.78780   0.17145   0.00000  Uiso   1.00
O1044  O     0.58250   0.78780   0.17145   0.00000  Uiso   1.00
C1045  C     0.70521   0.86764   0.24097   0.00000  Uiso   1.00
C1046  C     0.54250   0.83720   0.20355   0.00000  Uiso   1.00
O1047  O     0.70750   0.83720   0.20355   0.00000  Uiso   1.00
C1048  C     0.58021   0.99264   0.11597   0.00000  Uiso   1.00
C1049  C     0.66750   0.96220   0.07855   0.00000  Uiso   1.00
O1050  O     0.58250   0.96220   0.07855   0.00000  Uiso   1.00
C1051  C     0.54479   0.75736   0.24097   0.00000  Uiso   1.00
C1052  C     0.70750   0.78780   0.20355   0.00000  Uiso   1.00
O1053  O     0.54250   0.78780   0.20355   0.00000  Uiso   1.00
C1054  C     0.66979   0.88236   0.11597   0.00000  Uiso   1.00
C1055  C     0.58250   0.91280   0.07855   0.00000  Uiso   1.00
O1056  O     0.66750   0.91280   0.07855   0.00000  Uiso   1.00
Al1057 Al    0.56250   0.81250   0.18750   0.00000  Uiso   1.00
Al1058 Al    0.68750   0.81250   0.18750   0.00000  Uiso   1.00
Al1059 Al    0.68750   0.93750   0.06250   0.00000  Uiso   1.00
Al1060 Al    0.56250   0.93750   0.06250   0.00000  Uiso   1.00
O1061  O     0.50000   0.81250   0.16824   0.00000  Uiso   1.00
O1062  O     0.62500   0.93750   0.04325   0.00000  Uiso   1.00
O1063  O     0.50000   0.93750   0.08176   0.00000  Uiso   1.00
O1064  O     0.62500   0.81250   0.20676   0.00000  Uiso   1.00
C1065  C     0.50000   0.76472   0.23192   0.00000  Uiso   1.00
C1066  C     0.50000   0.78082   0.21212   0.00000  Uiso   1.00
C1067  C     0.62500   0.88972   0.10693   0.00000  Uiso   1.00
C1068  C     0.62500   0.90582   0.08712   0.00000  Uiso   1.00
C1069  C     0.50000   0.86028   0.23192   0.00000  Uiso   1.00
C1070  C     0.50000   0.84418   0.21212   0.00000  Uiso   1.00
C1071  C     0.62500   0.98528   0.10693   0.00000  Uiso   1.00
C1072  C     0.62500   0.96917   0.08712   0.00000  Uiso   1.00
C1073  C     0.50000   0.88972   0.01808   0.00000  Uiso   1.00
C1074  C     0.50000   0.90582   0.03788   0.00000  Uiso   1.00
C1075  C     0.62500   0.76472   0.14308   0.00000  Uiso   1.00
C1076  C     0.62500   0.78082   0.16287   0.00000  Uiso   1.00
C1077  C     0.50000   0.98528   0.01808   0.00000  Uiso   1.00
C1078  C     0.50000   0.96917   0.03788   0.00000  Uiso   1.00
C1079  C     0.62500   0.86028   0.14308   0.00000  Uiso   1.00
C1080  C     0.62500   0.84418   0.16287   0.00000  Uiso   1.00
C1081  C     0.95521   0.75736   0.24097   0.00000  Uiso   1.00
C1082  C     0.79250   0.78780   0.20355   0.00000  Uiso   1.00
O1083  O     0.95750   0.78780   0.20355   0.00000  Uiso   1.00
C1084  C     0.83021   0.88236   0.11597   0.00000  Uiso   1.00
C1085  C     0.91750   0.91280   0.07855   0.00000  Uiso   1.00
O1086  O     0.83250   0.91280   0.07855   0.00000  Uiso   1.00
C1087  C     0.79479   0.86764   0.24097   0.00000  Uiso   1.00
C1088  C     0.95750   0.83720   0.20355   0.00000  Uiso   1.00
O1089  O     0.79250   0.83720   0.20355   0.00000  Uiso   1.00
C1090  C     0.91979   0.99264   0.11597   0.00000  Uiso   1.00
C1091  C     0.83250   0.96220   0.07855   0.00000  Uiso   1.00
O1092  O     0.91750   0.96220   0.07855   0.00000  Uiso   1.00
C1093  C     0.79479   0.88236   0.00903   0.00000  Uiso   1.00
C1094  C     0.95750   0.91280   0.04645   0.00000  Uiso   1.00
O1095  O     0.79250   0.91280   0.04645   0.00000  Uiso   1.00
C1096  C     0.91979   0.75736   0.13403   0.00000  Uiso   1.00
C1097  C     0.83250   0.78780   0.17145   0.00000  Uiso   1.00
O1098  O     0.91750   0.78780   0.17145   0.00000  Uiso   1.00
C1099  C     0.95521   0.99264   0.00903   0.00000  Uiso   1.00
C1100  C     0.79250   0.96220   0.04645   0.00000  Uiso   1.00
O1101  O     0.95750   0.96220   0.04645   0.00000  Uiso   1.00
C1102  C     0.83021   0.86764   0.13403   0.00000  Uiso   1.00
C1103  C     0.91750   0.83720   0.17145   0.00000  Uiso   1.00
O1104  O     0.83250   0.83720   0.17145   0.00000  Uiso   1.00
C1105  C     0.79479   0.99264   0.00903   0.00000  Uiso   1.00
C1106  C     0.95750   0.96220   0.04645   0.00000  Uiso   1.00
O1107  O     0.79250   0.96220   0.04645   0.00000  Uiso   1.00
C1108  C     0.91979   0.86764   0.13403   0.00000  Uiso   1.00
C1109  C     0.83250   0.83720   0.17145   0.00000  Uiso   1.00
O1110  O     0.91750   0.83720   0.17145   0.00000  Uiso   1.00
C1111  C     0.95521   0.88236   0.00903   0.00000  Uiso   1.00
C1112  C     0.79250   0.91280   0.04645   0.00000  Uiso   1.00
O1113  O     0.95750   0.91280   0.04645   0.00000  Uiso   1.00
C1114  C     0.83021   0.75736   0.13403   0.00000  Uiso   1.00
C1115  C     0.91750   0.78780   0.17145   0.00000  Uiso   1.00
O1116  O     0.83250   0.78780   0.17145   0.00000  Uiso   1.00
C1117  C     0.95521   0.86764   0.24097   0.00000  Uiso   1.00
C1118  C     0.79250   0.83720   0.20355   0.00000  Uiso   1.00
O1119  O     0.95750   0.83720   0.20355   0.00000  Uiso   1.00
C1120  C     0.83021   0.99264   0.11597   0.00000  Uiso   1.00
C1121  C     0.91750   0.96220   0.07855   0.00000  Uiso   1.00
O1122  O     0.83250   0.96220   0.07855   0.00000  Uiso   1.00
C1123  C     0.79479   0.75736   0.24097   0.00000  Uiso   1.00
C1124  C     0.95750   0.78780   0.20355   0.00000  Uiso   1.00
O1125  O     0.79250   0.78780   0.20355   0.00000  Uiso   1.00
C1126  C     0.91979   0.88236   0.11597   0.00000  Uiso   1.00
C1127  C     0.83250   0.91280   0.07855   0.00000  Uiso   1.00
O1128  O     0.91750   0.91280   0.07855   0.00000  Uiso   1.00
Al1129 Al    0.81250   0.81250   0.18750   0.00000  Uiso   1.00
Al1130 Al    0.93750   0.81250   0.18750   0.00000  Uiso   1.00
Al1131 Al    0.93750   0.93750   0.06250   0.00000  Uiso   1.00
Al1132 Al    0.81250   0.93750   0.06250   0.00000  Uiso   1.00
O1133  O     0.75000   0.81250   0.16824   0.00000  Uiso   1.00
O1134  O     0.87500   0.93750   0.04325   0.00000  Uiso   1.00
O1135  O     0.75000   0.93750   0.08176   0.00000  Uiso   1.00
O1136  O     0.87500   0.81250   0.20676   0.00000  Uiso   1.00
C1137  C     0.75000   0.76472   0.23192   0.00000  Uiso   1.00
C1138  C     0.75000   0.78082   0.21212   0.00000  Uiso   1.00
C1139  C     0.87500   0.88972   0.10693   0.00000  Uiso   1.00
C1140  C     0.87500   0.90582   0.08712   0.00000  Uiso   1.00
C1141  C     0.75000   0.86028   0.23192   0.00000  Uiso   1.00
C1142  C     0.75000   0.84418   0.21212   0.00000  Uiso   1.00
C1143  C     0.87500   0.98528   0.10693   0.00000  Uiso   1.00
C1144  C     0.87500   0.96917   0.08712   0.00000  Uiso   1.00
C1145  C     0.75000   0.88972   0.01808   0.00000  Uiso   1.00
C1146  C     0.75000   0.90582   0.03788   0.00000  Uiso   1.00
C1147  C     0.87500   0.76472   0.14308   0.00000  Uiso   1.00
C1148  C     0.87500   0.78082   0.16287   0.00000  Uiso   1.00
C1149  C     0.75000   0.98528   0.01808   0.00000  Uiso   1.00
C1150  C     0.75000   0.96917   0.03788   0.00000  Uiso   1.00
C1151  C     0.87500   0.86028   0.14308   0.00000  Uiso   1.00
C1152  C     0.87500   0.84418   0.16287   0.00000  Uiso   1.00
C1153  C     0.20521   0.00736   0.49097   0.00000  Uiso   1.00
C1154  C     0.04250   0.03780   0.45355   0.00000  Uiso   1.00
O1155  O     0.20750   0.03780   0.45355   0.00000  Uiso   1.00
C1156  C     0.08021   0.13236   0.36597   0.00000  Uiso   1.00
C1157  C     0.16750   0.16280   0.32855   0.00000  Uiso   1.00
O1158  O     0.08250   0.16280   0.32855   0.00000  Uiso   1.00
C1159  C     0.04479   0.11764   0.49097   0.00000  Uiso   1.00
C1160  C     0.20750   0.08720   0.45355   0.00000  Uiso   1.00
O1161  O     0.04250   0.08720   0.45355   0.00000  Uiso   1.00
C1162  C     0.16979   0.24264   0.36597   0.00000  Uiso   1.00
C1163  C     0.08250   0.21220   0.32855   0.00000  Uiso   1.00
O1164  O     0.16750   0.21220   0.32855   0.00000  Uiso   1.00
C1165  C     0.04479   0.13236   0.25903   0.00000  Uiso   1.00
C1166  C     0.20750   0.16280   0.29645   0.00000  Uiso   1.00
O1167  O     0.04250   0.16280   0.29645   0.00000  Uiso   1.00
C1168  C     0.16979   0.00736   0.38403   0.00000  Uiso   1.00
C1169  C     0.08250   0.03780   0.42145   0.00000  Uiso   1.00
O1170  O     0.16750   0.03780   0.42145   0.00000  Uiso   1.00
C1171  C     0.20521   0.24264   0.25903   0.00000  Uiso   1.00
C1172  C     0.04250   0.21220   0.29645   0.00000  Uiso   1.00
O1173  O     0.20750   0.21220   0.29645   0.00000  Uiso   1.00
C1174  C     0.08021   0.11764   0.38403   0.00000  Uiso   1.00
C1175  C     0.16750   0.08720   0.42145   0.00000  Uiso   1.00
O1176  O     0.08250   0.08720   0.42145   0.00000  Uiso   1.00
C1177  C     0.04479   0.24264   0.25903   0.00000  Uiso   1.00
C1178  C     0.20750   0.21220   0.29645   0.00000  Uiso   1.00
O1179  O     0.04250   0.21220   0.29645   0.00000  Uiso   1.00
C1180  C     0.16979   0.11764   0.38403   0.00000  Uiso   1.00
C1181  C     0.08250   0.08720   0.42145   0.00000  Uiso   1.00
O1182  O     0.16750   0.08720   0.42145   0.00000  Uiso   1.00
C1183  C     0.20521   0.13236   0.25903   0.00000  Uiso   1.00
C1184  C     0.04250   0.16280   0.29645   0.00000  Uiso   1.00
O1185  O     0.20750   0.16280   0.29645   0.00000  Uiso   1.00
C1186  C     0.08021   0.00736   0.38403   0.00000  Uiso   1.00
C1187  C     0.16750   0.03780   0.42145   0.00000  Uiso   1.00
O1188  O     0.08250   0.03780   0.42145   0.00000  Uiso   1.00
C1189  C     0.20521   0.11764   0.49097   0.00000  Uiso   1.00
C1190  C     0.04250   0.08720   0.45355   0.00000  Uiso   1.00
O1191  O     0.20750   0.08720   0.45355   0.00000  Uiso   1.00
C1192  C     0.08021   0.24264   0.36597   0.00000  Uiso   1.00
C1193  C     0.16750   0.21220   0.32855   0.00000  Uiso   1.00
O1194  O     0.08250   0.21220   0.32855   0.00000  Uiso   1.00
C1195  C     0.04479   0.00736   0.49097   0.00000  Uiso   1.00
C1196  C     0.20750   0.03780   0.45355   0.00000  Uiso   1.00
O1197  O     0.04250   0.03780   0.45355   0.00000  Uiso   1.00
C1198  C     0.16979   0.13236   0.36597   0.00000  Uiso   1.00
C1199  C     0.08250   0.16280   0.32855   0.00000  Uiso   1.00
O1200  O     0.16750   0.16280   0.32855   0.00000  Uiso   1.00
Al1201 Al    0.06250   0.06250   0.43750   0.00000  Uiso   1.00
Al1202 Al    0.18750   0.06250   0.43750   0.00000  Uiso   1.00
Al1203 Al    0.18750   0.18750   0.31250   0.00000  Uiso   1.00
Al1204 Al    0.06250   0.18750   0.31250   0.00000  Uiso   1.00
O1205  O     0.00000   0.06250   0.41825   0.00000  Uiso   1.00
O1206  O     0.12500   0.18750   0.29325   0.00000  Uiso   1.00
O1207  O     0.00000   0.18750   0.33176   0.00000  Uiso   1.00
O1208  O     0.12500   0.06250   0.45676   0.00000  Uiso   1.00
C1209  C     0.00000   0.01472   0.48192   0.00000  Uiso   1.00
C1210  C     0.00000   0.03082   0.46212   0.00000  Uiso   1.00
C1211  C     0.12500   0.13972   0.35693   0.00000  Uiso   1.00
C1212  C     0.12500   0.15582   0.33712   0.00000  Uiso   1.00
C1213  C     0.00000   0.11028   0.48192   0.00000  Uiso   1.00
C1214  C     0.00000   0.09418   0.46212   0.00000  Uiso   1.00
C1215  C     0.12500   0.23528   0.35693   0.00000  Uiso   1.00
C1216  C     0.12500   0.21917   0.33712   0.00000  Uiso   1.00
C1217  C     0.00000   0.13972   0.26808   0.00000  Uiso   1.00
C1218  C     0.00000   0.15582   0.28788   0.00000  Uiso   1.00
C1219  C     0.12500   0.01472   0.39308   0.00000  Uiso   1.00
C1220  C     0.12500   0.03082   0.41287   0.00000  Uiso   1.00
C1221  C     0.00000   0.23528   0.26808   0.00000  Uiso   1.00
C1222  C     0.00000   0.21917   0.28788   0.00000  Uiso   1.00
C1223  C     0.12500   0.11028   0.39308   0.00000  Uiso   1.00
C1224  C     0.12500   0.09418   0.41287   0.00000  Uiso   1.00
C1225  C     0.45521   0.00736   0.49097   0.00000  Uiso   1.00
C1226  C     0.29250   0.03780   0.45355   0.00000  Uiso   1.00
O1227  O     0.45750   0.03780   0.45355   0.00000  Uiso   1.00
C1228  C     0.33021   0.13236   0.36597   0.00000  Uiso   1.00
C1229  C     0.41750   0.16280   0.32855   0.00000  Uiso   1.00
O1230  O     0.33250   0.16280   0.32855   0.00000  Uiso   1.00
C1231  C     0.29479   0.11764   0.49097   0.00000  Uiso   1.00
C1232  C     0.45750   0.08720   0.45355   0.00000  Uiso   1.00
O1233  O     0.29250   0.08720   0.45355   0.00000  Uiso   1.00
C1234  C     0.41979   0.24264   0.36597   0.00000  Uiso   1.00
C1235  C     0.33250   0.21220   0.32855   0.00000  Uiso   1.00
O1236  O     0.41750   0.21220   0.32855   0.00000  Uiso   1.00
C1237  C     0.29479   0.13236   0.25903   0.00000  Uiso   1.00
C1238  C     0.45750   0.16280   0.29645   0.00000  Uiso   1.00
O1239  O     0.29250   0.16280   0.29645   0.00000  Uiso   1.00
C1240  C     0.41979   0.00736   0.38403   0.00000  Uiso   1.00
C1241  C     0.33250   0.03780   0.42145   0.00000  Uiso   1.00
O1242  O     0.41750   0.03780   0.42145   0.00000  Uiso   1.00
C1243  C     0.45521   0.24264   0.25903   0.00000  Uiso   1.00
C1244  C     0.29250   0.21220   0.29645   0.00000  Uiso   1.00
O1245  O     0.45750   0.21220   0.29645   0.00000  Uiso   1.00
C1246  C     0.33021   0.11764   0.38403   0.00000  Uiso   1.00
C1247  C     0.41750   0.08720   0.42145   0.00000  Uiso   1.00
O1248  O     0.33250   0.08720   0.42145   0.00000  Uiso   1.00
C1249  C     0.29479   0.24264   0.25903   0.00000  Uiso   1.00
C1250  C     0.45750   0.21220   0.29645   0.00000  Uiso   1.00
O1251  O     0.29250   0.21220   0.29645   0.00000  Uiso   1.00
C1252  C     0.41979   0.11764   0.38403   0.00000  Uiso   1.00
C1253  C     0.33250   0.08720   0.42145   0.00000  Uiso   1.00
O1254  O     0.41750   0.08720   0.42145   0.00000  Uiso   1.00
C1255  C     0.45521   0.13236   0.25903   0.00000  Uiso   1.00
C1256  C     0.29250   0.16280   0.29645   0.00000  Uiso   1.00
O1257  O     0.45750   0.16280   0.29645   0.00000  Uiso   1.00
C1258  C     0.33021   0.00736   0.38403   0.00000  Uiso   1.00
C1259  C     0.41750   0.03780   0.42145   0.00000  Uiso   1.00
O1260  O     0.33250   0.03780   0.42145   0.00000  Uiso   1.00
C1261  C     0.45521   0.11764   0.49097   0.00000  Uiso   1.00
C1262  C     0.29250   0.08720   0.45355   0.00000  Uiso   1.00
O1263  O     0.45750   0.08720   0.45355   0.00000  Uiso   1.00
C1264  C     0.33021   0.24264   0.36597   0.00000  Uiso   1.00
C1265  C     0.41750   0.21220   0.32855   0.00000  Uiso   1.00
O1266  O     0.33250   0.21220   0.32855   0.00000  Uiso   1.00
C1267  C     0.29479   0.00736   0.49097   0.00000  Uiso   1.00
C1268  C     0.45750   0.03780   0.45355   0.00000  Uiso   1.00
O1269  O     0.29250   0.03780   0.45355   0.00000  Uiso   1.00
C1270  C     0.41979   0.13236   0.36597   0.00000  Uiso   1.00
C1271  C     0.33250   0.16280   0.32855   0.00000  Uiso   1.00
O1272  O     0.41750   0.16280   0.32855   0.00000  Uiso   1.00
Al1273 Al    0.31250   0.06250   0.43750   0.00000  Uiso   1.00
Al1274 Al    0.43750   0.06250   0.43750   0.00000  Uiso   1.00
Al1275 Al    0.43750   0.18750   0.31250   0.00000  Uiso   1.00
Al1276 Al    0.31250   0.18750   0.31250   0.00000  Uiso   1.00
O1277  O     0.25000   0.06250   0.41825   0.00000  Uiso   1.00
O1278  O     0.37500   0.18750   0.29325   0.00000  Uiso   1.00
O1279  O     0.25000   0.18750   0.33176   0.00000  Uiso   1.00
O1280  O     0.37500   0.06250   0.45676   0.00000  Uiso   1.00
C1281  C     0.25000   0.01472   0.48192   0.00000  Uiso   1.00
C1282  C     0.25000   0.03082   0.46212   0.00000  Uiso   1.00
C1283  C     0.37500   0.13972   0.35693   0.00000  Uiso   1.00
C1284  C     0.37500   0.15582   0.33712   0.00000  Uiso   1.00
C1285  C     0.25000   0.11028   0.48192   0.00000  Uiso   1.00
C1286  C     0.25000   0.09418   0.46212   0.00000  Uiso   1.00
C1287  C     0.37500   0.23528   0.35693   0.00000  Uiso   1.00
C1288  C     0.37500   0.21917   0.33712   0.00000  Uiso   1.00
C1289  C     0.25000   0.13972   0.26808   0.00000  Uiso   1.00
C1290  C     0.25000   0.15582   0.28788   0.00000  Uiso   1.00
C1291  C     0.37500   0.01472   0.39308   0.00000  Uiso   1.00
C1292  C     0.37500   0.03082   0.41287   0.00000  Uiso   1.00
C1293  C     0.25000   0.23528   0.26808   0.00000  Uiso   1.00
C1294  C     0.25000   0.21917   0.28788   0.00000  Uiso   1.00
C1295  C     0.37500   0.11028   0.39308   0.00000  Uiso   1.00
C1296  C     0.37500   0.09418   0.41287   0.00000  Uiso   1.00
C1297  C     0.70521   0.00736   0.49097   0.00000  Uiso   1.00
C1298  C     0.54250   0.03780   0.45355   0.00000  Uiso   1.00
O1299  O     0.70750   0.03780   0.45355   0.00000  Uiso   1.00
C1300  C     0.58021   0.13236   0.36597   0.00000  Uiso   1.00
C1301  C     0.66750   0.16280   0.32855   0.00000  Uiso   1.00
O1302  O     0.58250   0.16280   0.32855   0.00000  Uiso   1.00
C1303  C     0.54479   0.11764   0.49097   0.00000  Uiso   1.00
C1304  C     0.70750   0.08720   0.45355   0.00000  Uiso   1.00
O1305  O     0.54250   0.08720   0.45355   0.00000  Uiso   1.00
C1306  C     0.66979   0.24264   0.36597   0.00000  Uiso   1.00
C1307  C     0.58250   0.21220   0.32855   0.00000  Uiso   1.00
O1308  O     0.66750   0.21220   0.32855   0.00000  Uiso   1.00
C1309  C     0.54479   0.13236   0.25903   0.00000  Uiso   1.00
C1310  C     0.70750   0.16280   0.29645   0.00000  Uiso   1.00
O1311  O     0.54250   0.16280   0.29645   0.00000  Uiso   1.00
C1312  C     0.66979   0.00736   0.38403   0.00000  Uiso   1.00
C1313  C     0.58250   0.03780   0.42145   0.00000  Uiso   1.00
O1314  O     0.66750   0.03780   0.42145   0.00000  Uiso   1.00
C1315  C     0.70521   0.24264   0.25903   0.00000  Uiso   1.00
C1316  C     0.54250   0.21220   0.29645   0.00000  Uiso   1.00
O1317  O     0.70750   0.21220   0.29645   0.00000  Uiso   1.00
C1318  C     0.58021   0.11764   0.38403   0.00000  Uiso   1.00
C1319  C     0.66750   0.08720   0.42145   0.00000  Uiso   1.00
O1320  O     0.58250   0.08720   0.42145   0.00000  Uiso   1.00
C1321  C     0.54479   0.24264   0.25903   0.00000  Uiso   1.00
C1322  C     0.70750   0.21220   0.29645   0.00000  Uiso   1.00
O1323  O     0.54250   0.21220   0.29645   0.00000  Uiso   1.00
C1324  C     0.66979   0.11764   0.38403   0.00000  Uiso   1.00
C1325  C     0.58250   0.08720   0.42145   0.00000  Uiso   1.00
O1326  O     0.66750   0.08720   0.42145   0.00000  Uiso   1.00
C1327  C     0.70521   0.13236   0.25903   0.00000  Uiso   1.00
C1328  C     0.54250   0.16280   0.29645   0.00000  Uiso   1.00
O1329  O     0.70750   0.16280   0.29645   0.00000  Uiso   1.00
C1330  C     0.58021   0.00736   0.38403   0.00000  Uiso   1.00
C1331  C     0.66750   0.03780   0.42145   0.00000  Uiso   1.00
O1332  O     0.58250   0.03780   0.42145   0.00000  Uiso   1.00
C1333  C     0.70521   0.11764   0.49097   0.00000  Uiso   1.00
C1334  C     0.54250   0.08720   0.45355   0.00000  Uiso   1.00
O1335  O     0.70750   0.08720   0.45355   0.00000  Uiso   1.00
C1336  C     0.58021   0.24264   0.36597   0.00000  Uiso   1.00
C1337  C     0.66750   0.21220   0.32855   0.00000  Uiso   1.00
O1338  O     0.58250   0.21220   0.32855   0.00000  Uiso   1.00
C1339  C     0.54479   0.00736   0.49097   0.00000  Uiso   1.00
C1340  C     0.70750   0.03780   0.45355   0.00000  Uiso   1.00
O1341  O     0.54250   0.03780   0.45355   0.00000  Uiso   1.00
C1342  C     0.66979   0.13236   0.36597   0.00000  Uiso   1.00
C1343  C     0.58250   0.16280   0.32855   0.00000  Uiso   1.00
O1344  O     0.66750   0.16280   0.32855   0.00000  Uiso   1.00
Al1345 Al    0.56250   0.06250   0.43750   0.00000  Uiso   1.00
Al1346 Al    0.68750   0.06250   0.43750   0.00000  Uiso   1.00
Al1347 Al    0.68750   0.18750   0.31250   0.00000  Uiso   1.00
Al1348 Al    0.56250   0.18750   0.31250   0.00000  Uiso   1.00
O1349  O     0.50000   0.06250   0.41825   0.00000  Uiso   1.00
O1350  O     0.62500   0.18750   0.29325   0.00000  Uiso   1.00
O1351  O     0.50000   0.18750   0.33176   0.00000  Uiso   1.00
O1352  O     0.62500   0.06250   0.45676   0.00000  Uiso   1.00
C1353  C     0.50000   0.01472   0.48192   0.00000  Uiso   1.00
C1354  C     0.50000   0.03082   0.46212   0.00000  Uiso   1.00
C1355  C     0.62500   0.13972   0.35693   0.00000  Uiso   1.00
C1356  C     0.62500   0.15582   0.33712   0.00000  Uiso   1.00
C1357  C     0.50000   0.11028   0.48192   0.00000  Uiso   1.00
C1358  C     0.50000   0.09418   0.46212   0.00000  Uiso   1.00
C1359  C     0.62500   0.23528   0.35693   0.00000  Uiso   1.00
C1360  C     0.62500   0.21917   0.33712   0.00000  Uiso   1.00
C1361  C     0.50000   0.13972   0.26808   0.00000  Uiso   1.00
C1362  C     0.50000   0.15582   0.28788   0.00000  Uiso   1.00
C1363  C     0.62500   0.01472   0.39308   0.00000  Uiso   1.00
C1364  C     0.62500   0.03082   0.41287   0.00000  Uiso   1.00
C1365  C     0.50000   0.23528   0.26808   0.00000  Uiso   1.00
C1366  C     0.50000   0.21917   0.28788   0.00000  Uiso   1.00
C1367  C     0.62500   0.11028   0.39308   0.00000  Uiso   1.00
C1368  C     0.62500   0.09418   0.41287   0.00000  Uiso   1.00
C1369  C     0.95521   0.00736   0.49097   0.00000  Uiso   1.00
C1370  C     0.79250   0.03780   0.45355   0.00000  Uiso   1.00
O1371  O     0.95750   0.03780   0.45355   0.00000  Uiso   1.00
C1372  C     0.83021   0.13236   0.36597   0.00000  Uiso   1.00
C1373  C     0.91750   0.16280   0.32855   0.00000  Uiso   1.00
O1374  O     0.83250   0.16280   0.32855   0.00000  Uiso   1.00
C1375  C     0.79479   0.11764   0.49097   0.00000  Uiso   1.00
C1376  C     0.95750   0.08720   0.45355   0.00000  Uiso   1.00
O1377  O     0.79250   0.08720   0.45355   0.00000  Uiso   1.00
C1378  C     0.91979   0.24264   0.36597   0.00000  Uiso   1.00
C1379  C     0.83250   0.21220   0.32855   0.00000  Uiso   1.00
O1380  O     0.91750   0.21220   0.32855   0.00000  Uiso   1.00
C1381  C     0.79479   0.13236   0.25903   0.00000  Uiso   1.00
C1382  C     0.95750   0.16280   0.29645   0.00000  Uiso   1.00
O1383  O     0.79250   0.16280   0.29645   0.00000  Uiso   1.00
C1384  C     0.91979   0.00736   0.38403   0.00000  Uiso   1.00
C1385  C     0.83250   0.03780   0.42145   0.00000  Uiso   1.00
O1386  O     0.91750   0.03780   0.42145   0.00000  Uiso   1.00
C1387  C     0.95521   0.24264   0.25903   0.00000  Uiso   1.00
C1388  C     0.79250   0.21220   0.29645   0.00000  Uiso   1.00
O1389  O     0.95750   0.21220   0.29645   0.00000  Uiso   1.00
C1390  C     0.83021   0.11764   0.38403   0.00000  Uiso   1.00
C1391  C     0.91750   0.08720   0.42145   0.00000  Uiso   1.00
O1392  O     0.83250   0.08720   0.42145   0.00000  Uiso   1.00
C1393  C     0.79479   0.24264   0.25903   0.00000  Uiso   1.00
C1394  C     0.95750   0.21220   0.29645   0.00000  Uiso   1.00
O1395  O     0.79250   0.21220   0.29645   0.00000  Uiso   1.00
C1396  C     0.91979   0.11764   0.38403   0.00000  Uiso   1.00
C1397  C     0.83250   0.08720   0.42145   0.00000  Uiso   1.00
O1398  O     0.91750   0.08720   0.42145   0.00000  Uiso   1.00
C1399  C     0.95521   0.13236   0.25903   0.00000  Uiso   1.00
C1400  C     0.79250   0.16280   0.29645   0.00000  Uiso   1.00
O1401  O     0.95750   0.16280   0.29645   0.00000  Uiso   1.00
C1402  C     0.83021   0.00736   0.38403   0.00000  Uiso   1.00
C1403  C     0.91750   0.03780   0.42145   0.00000  Uiso   1.00
O1404  O     0.83250   0.03780   0.42145   0.00000  Uiso   1.00
C1405  C     0.95521   0.11764   0.49097   0.00000  Uiso   1.00
C1406  C     0.79250   0.08720   0.45355   0.00000  Uiso   1.00
O1407  O     0.95750   0.08720   0.45355   0.00000  Uiso   1.00
C1408  C     0.83021   0.24264   0.36597   0.00000  Uiso   1.00
C1409  C     0.91750   0.21220   0.32855   0.00000  Uiso   1.00
O1410  O     0.83250   0.21220   0.32855   0.00000  Uiso   1.00
C1411  C     0.79479   0.00736   0.49097   0.00000  Uiso   1.00
C1412  C     0.95750   0.03780   0.45355   0.00000  Uiso   1.00
O1413  O     0.79250   0.03780   0.45355   0.00000  Uiso   1.00
C1414  C     0.91979   0.13236   0.36597   0.00000  Uiso   1.00
C1415  C     0.83250   0.16280   0.32855   0.00000  Uiso   1.00
O1416  O     0.91750   0.16280   0.32855   0.00000  Uiso   1.00
Al1417 Al    0.81250   0.06250   0.43750   0.00000  Uiso   1.00
Al1418 Al    0.93750   0.06250   0.43750   0.00000  Uiso   1.00
Al1419 Al    0.93750   0.18750   0.31250   0.00000  Uiso   1.00
Al1420 Al    0.81250   0.18750   0.31250   0.00000  Uiso   1.00
O1421  O     0.75000   0.06250   0.41825   0.00000  Uiso   1.00
O1422  O     0.87500   0.18750   0.29325   0.00000  Uiso   1.00
O1423  O     0.75000   0.18750   0.33176   0.00000  Uiso   1.00
O1424  O     0.87500   0.06250   0.45676   0.00000  Uiso   1.00
C1425  C     0.75000   0.01472   0.48192   0.00000  Uiso   1.00
C1426  C     0.75000   0.03082   0.46212   0.00000  Uiso   1.00
C1427  C     0.87500   0.13972   0.35693   0.00000  Uiso   1.00
C1428  C     0.87500   0.15582   0.33712   0.00000  Uiso   1.00
C1429  C     0.75000   0.11028   0.48192   0.00000  Uiso   1.00
C1430  C     0.75000   0.09418   0.46212   0.00000  Uiso   1.00
C1431  C     0.87500   0.23528   0.35693   0.00000  Uiso   1.00
C1432  C     0.87500   0.21917   0.33712   0.00000  Uiso   1.00
C1433  C     0.75000   0.13972   0.26808   0.00000  Uiso   1.00
C1434  C     0.75000   0.15582   0.28788   0.00000  Uiso   1.00
C1435  C     0.87500   0.01472   0.39308   0.00000  Uiso   1.00
C1436  C     0.87500   0.03082   0.41287   0.00000  Uiso   1.00
C1437  C     0.75000   0.23528   0.26808   0.00000  Uiso   1.00
C1438  C     0.75000   0.21917   0.28788   0.00000  Uiso   1.00
C1439  C     0.87500   0.11028   0.39308   0.00000  Uiso   1.00
C1440  C     0.87500   0.09418   0.41287   0.00000  Uiso   1.00
C1441  C     0.20521   0.25736   0.49097   0.00000  Uiso   1.00
C1442  C     0.04250   0.28780   0.45355   0.00000  Uiso   1.00
O1443  O     0.20750   0.28780   0.45355   0.00000  Uiso   1.00
C1444  C     0.08021   0.38236   0.36597   0.00000  Uiso   1.00
C1445  C     0.16750   0.41280   0.32855   0.00000  Uiso   1.00
O1446  O     0.08250   0.41280   0.32855   0.00000  Uiso   1.00
C1447  C     0.04479   0.36764   0.49097   0.00000  Uiso   1.00
C1448  C     0.20750   0.33720   0.45355   0.00000  Uiso   1.00
O1449  O     0.04250   0.33720   0.45355   0.00000  Uiso   1.00
C1450  C     0.16979   0.49264   0.36597   0.00000  Uiso   1.00
C1451  C     0.08250   0.46220   0.32855   0.00000  Uiso   1.00
O1452  O     0.16750   0.46220   0.32855   0.00000  Uiso   1.00
C1453  C     0.04479   0.38236   0.25903   0.00000  Uiso   1.00
C1454  C     0.20750   0.41280   0.29645   0.00000  Uiso   1.00
O1455  O     0.04250   0.41280   0.29645   0.00000  Uiso   1.00
C1456  C     0.16979   0.25736   0.38403   0.00000  Uiso   1.00
C1457  C     0.08250   0.28780   0.42145   0.00000  Uiso   1.00
O1458  O     0.16750   0.28780   0.42145   0.00000  Uiso   1.00
C1459  C     0.20521   0.49264   0.25903   0.00000  Uiso   1.00
C1460  C     0.04250   0.46220   0.29645   0.00000  Uiso   1.00
O1461  O     0.20750   0.46220   0.29645   0.00000  Uiso   1.00
C1462  C     0.08021   0.36764   0.38403   0.00000  Uiso   1.00
C1463  C     0.16750   0.33720   0.42145   0.00000  Uiso   1.00
O1464  O     0.08250   0.33720   0.42145   0.00000  Uiso   1.00
C1465  C     0.04479   0.49264   0.25903   0.00000  Uiso   1.00
C1466  C     0.20750   0.46220   0.29645   0.00000  Uiso   1.00
O1467  O     0.04250   0.46220   0.29645   0.00000  Uiso   1.00
C1468  C     0.16979   0.36764   0.38403   0.00000  Uiso   1.00
C1469  C     0.08250   0.33720   0.42145   0.00000  Uiso   1.00
O1470  O     0.16750   0.33720   0.42145   0.00000  Uiso   1.00
C1471  C     0.20521   0.38236   0.25903   0.00000  Uiso   1.00
C1472  C     0.04250   0.41280   0.29645   0.00000  Uiso   1.00
O1473  O     0.20750   0.41280   0.29645   0.00000  Uiso   1.00
C1474  C     0.08021   0.25736   0.38403   0.00000  Uiso   1.00
C1475  C     0.16750   0.28780   0.42145   0.00000  Uiso   1.00
O1476  O     0.08250   0.28780   0.42145   0.00000  Uiso   1.00
C1477  C     0.20521   0.36764   0.49097   0.00000  Uiso   1.00
C1478  C     0.04250   0.33720   0.45355   0.00000  Uiso   1.00
O1479  O     0.20750   0.33720   0.45355   0.00000  Uiso   1.00
C1480  C     0.08021   0.49264   0.36597   0.00000  Uiso   1.00
C1481  C     0.16750   0.46220   0.32855   0.00000  Uiso   1.00
O1482  O     0.08250   0.46220   0.32855   0.00000  Uiso   1.00
C1483  C     0.04479   0.25736   0.49097   0.00000  Uiso   1.00
C1484  C     0.20750   0.28780   0.45355   0.00000  Uiso   1.00
O1485  O     0.04250   0.28780   0.45355   0.00000  Uiso   1.00
C1486  C     0.16979   0.38236   0.36597   0.00000  Uiso   1.00
C1487  C     0.08250   0.41280   0.32855   0.00000  Uiso   1.00
O1488  O     0.16750   0.41280   0.32855   0.00000  Uiso   1.00
Al1489 Al    0.06250   0.31250   0.43750   0.00000  Uiso   1.00
Al1490 Al    0.18750   0.31250   0.43750   0.00000  Uiso   1.00
Al1491 Al    0.18750   0.43750   0.31250   0.00000  Uiso   1.00
Al1492 Al    0.06250   0.43750   0.31250   0.00000  Uiso   1.00
O1493  O     0.00000   0.31250   0.41825   0.00000  Uiso   1.00
O1494  O     0.12500   0.43750   0.29325   0.00000  Uiso   1.00
O1495  O     0.00000   0.43750   0.33176   0.00000  Uiso   1.00
O1496  O     0.12500   0.31250   0.45676   0.00000  Uiso   1.00
C1497  C     0.00000   0.26472   0.48192   0.00000  Uiso   1.00
C1498  C     0.00000   0.28082   0.46212   0.00000  Uiso   1.00
C1499  C     0.12500   0.38972   0.35693   0.00000  Uiso   1.00
C1500  C     0.12500   0.40582   0.33712   0.00000  Uiso   1.00
C1501  C     0.00000   0.36028   0.48192   0.00000  Uiso   1.00
C1502  C     0.00000   0.34417   0.46212   0.00000  Uiso   1.00
C1503  C     0.12500   0.48528   0.35693   0.00000  Uiso   1.00
C1504  C     0.12500   0.46917   0.33712   0.00000  Uiso   1.00
C1505  C     0.00000   0.38972   0.26808   0.00000  Uiso   1.00
C1506  C     0.00000   0.40582   0.28788   0.00000  Uiso   1.00
C1507  C     0.12500   0.26472   0.39308   0.00000  Uiso   1.00
C1508  C     0.12500   0.28082   0.41287   0.00000  Uiso   1.00
C1509  C     0.00000   0.48528   0.26808   0.00000  Uiso   1.00
C1510  C     0.00000   0.46917   0.28788   0.00000  Uiso   1.00
C1511  C     0.12500   0.36028   0.39308   0.00000  Uiso   1.00
C1512  C     0.12500   0.34417   0.41287   0.00000  Uiso   1.00
C1513  C     0.45521   0.25736   0.49097   0.00000  Uiso   1.00
C1514  C     0.29250   0.28780   0.45355   0.00000  Uiso   1.00
O1515  O     0.45750   0.28780   0.45355   0.00000  Uiso   1.00
C1516  C     0.33021   0.38236   0.36597   0.00000  Uiso   1.00
C1517  C     0.41750   0.41280   0.32855   0.00000  Uiso   1.00
O1518  O     0.33250   0.41280   0.32855   0.00000  Uiso   1.00
C1519  C     0.29479   0.36764   0.49097   0.00000  Uiso   1.00
C1520  C     0.45750   0.33720   0.45355   0.00000  Uiso   1.00
O1521  O     0.29250   0.33720   0.45355   0.00000  Uiso   1.00
C1522  C     0.41979   0.49264   0.36597   0.00000  Uiso   1.00
C1523  C     0.33250   0.46220   0.32855   0.00000  Uiso   1.00
O1524  O     0.41750   0.46220   0.32855   0.00000  Uiso   1.00
C1525  C     0.29479   0.38236   0.25903   0.00000  Uiso   1.00
C1526  C     0.45750   0.41280   0.29645   0.00000  Uiso   1.00
O1527  O     0.29250   0.41280   0.29645   0.00000  Uiso   1.00
C1528  C     0.41979   0.25736   0.38403   0.00000  Uiso   1.00
C1529  C     0.33250   0.28780   0.42145   0.00000  Uiso   1.00
O1530  O     0.41750   0.28780   0.42145   0.00000  Uiso   1.00
C1531  C     0.45521   0.49264   0.25903   0.00000  Uiso   1.00
C1532  C     0.29250   0.46220   0.29645   0.00000  Uiso   1.00
O1533  O     0.45750   0.46220   0.29645   0.00000  Uiso   1.00
C1534  C     0.33021   0.36764   0.38403   0.00000  Uiso   1.00
C1535  C     0.41750   0.33720   0.42145   0.00000  Uiso   1.00
O1536  O     0.33250   0.33720   0.42145   0.00000  Uiso   1.00
C1537  C     0.29479   0.49264   0.25903   0.00000  Uiso   1.00
C1538  C     0.45750   0.46220   0.29645   0.00000  Uiso   1.00
O1539  O     0.29250   0.46220   0.29645   0.00000  Uiso   1.00
C1540  C     0.41979   0.36764   0.38403   0.00000  Uiso   1.00
C1541  C     0.33250   0.33720   0.42145   0.00000  Uiso   1.00
O1542  O     0.41750   0.33720   0.42145   0.00000  Uiso   1.00
C1543  C     0.45521   0.38236   0.25903   0.00000  Uiso   1.00
C1544  C     0.29250   0.41280   0.29645   0.00000  Uiso   1.00
O1545  O     0.45750   0.41280   0.29645   0.00000  Uiso   1.00
C1546  C     0.33021   0.25736   0.38403   0.00000  Uiso   1.00
C1547  C     0.41750   0.28780   0.42145   0.00000  Uiso   1.00
O1548  O     0.33250   0.28780   0.42145   0.00000  Uiso   1.00
C1549  C     0.45521   0.36764   0.49097   0.00000  Uiso   1.00
C1550  C     0.29250   0.33720   0.45355   0.00000  Uiso   1.00
O1551  O     0.45750   0.33720   0.45355   0.00000  Uiso   1.00
C1552  C     0.33021   0.49264   0.36597   0.00000  Uiso   1.00
C1553  C     0.41750   0.46220   0.32855   0.00000  Uiso   1.00
O1554  O     0.33250   0.46220   0.32855   0.00000  Uiso   1.00
C1555  C     0.29479   0.25736   0.49097   0.00000  Uiso   1.00
C1556  C     0.45750   0.28780   0.45355   0.00000  Uiso   1.00
O1557  O     0.29250   0.28780   0.45355   0.00000  Uiso   1.00
C1558  C     0.41979   0.38236   0.36597   0.00000  Uiso   1.00
C1559  C     0.33250   0.41280   0.32855   0.00000  Uiso   1.00
O1560  O     0.41750   0.41280   0.32855   0.00000  Uiso   1.00
Al1561 Al    0.31250   0.31250   0.43750   0.00000  Uiso   1.00
Al1562 Al    0.43750   0.31250   0.43750   0.00000  Uiso   1.00
Al1563 Al    0.43750   0.43750   0.31250   0.00000  Uiso   1.00
Al1564 Al    0.31250   0.43750   0.31250   0.00000  Uiso   1.00
O1565  O     0.25000   0.31250   0.41825   0.00000  Uiso   1.00
O1566  O     0.37500   0.43750   0.29325   0.00000  Uiso   1.00
O1567  O     0.25000   0.43750   0.33176   0.00000  Uiso   1.00
O1568  O     0.37500   0.31250   0.45676   0.00000  Uiso   1.00
C1569  C     0.25000   0.26472   0.48192   0.00000  Uiso   1.00
C1570  C     0.25000   0.28082   0.46212   0.00000  Uiso   1.00
C1571  C     0.37500   0.38972   0.35693   0.00000  Uiso   1.00
C1572  C     0.37500   0.40582   0.33712   0.00000  Uiso   1.00
C1573  C     0.25000   0.36028   0.48192   0.00000  Uiso   1.00
C1574  C     0.25000   0.34417   0.46212   0.00000  Uiso   1.00
C1575  C     0.37500   0.48528   0.35693   0.00000  Uiso   1.00
C1576  C     0.37500   0.46917   0.33712   0.00000  Uiso   1.00
C1577  C     0.25000   0.38972   0.26808   0.00000  Uiso   1.00
C1578  C     0.25000   0.40582   0.28788   0.00000  Uiso   1.00
C1579  C     0.37500   0.26472   0.39308   0.00000  Uiso   1.00
C1580  C     0.37500   0.28082   0.41287   0.00000  Uiso   1.00
C1581  C     0.25000   0.48528   0.26808   0.00000  Uiso   1.00
C1582  C     0.25000   0.46917   0.28788   0.00000  Uiso   1.00
C1583  C     0.37500   0.36028   0.39308   0.00000  Uiso   1.00
C1584  C     0.37500   0.34417   0.41287   0.00000  Uiso   1.00
C1585  C     0.70521   0.25736   0.49097   0.00000  Uiso   1.00
C1586  C     0.54250   0.28780   0.45355   0.00000  Uiso   1.00
O1587  O     0.70750   0.28780   0.45355   0.00000  Uiso   1.00
C1588  C     0.58021   0.38236   0.36597   0.00000  Uiso   1.00
C1589  C     0.66750   0.41280   0.32855   0.00000  Uiso   1.00
O1590  O     0.58250   0.41280   0.32855   0.00000  Uiso   1.00
C1591  C     0.54479   0.36764   0.49097   0.00000  Uiso   1.00
C1592  C     0.70750   0.33720   0.45355   0.00000  Uiso   1.00
O1593  O     0.54250   0.33720   0.45355   0.00000  Uiso   1.00
C1594  C     0.66979   0.49264   0.36597   0.00000  Uiso   1.00
C1595  C     0.58250   0.46220   0.32855   0.00000  Uiso   1.00
O1596  O     0.66750   0.46220   0.32855   0.00000  Uiso   1.00
C1597  C     0.54479   0.38236   0.25903   0.00000  Uiso   1.00
C1598  C     0.70750   0.41280   0.29645   0.00000  Uiso   1.00
O1599  O     0.54250   0.41280   0.29645   0.00000  Uiso   1.00
C1600  C     0.66979   0.25736   0.38403   0.00000  Uiso   1.00
C1601  C     0.58250   0.28780   0.42145   0.00000  Uiso   1.00
O1602  O     0.66750   0.28780   0.42145   0.00000  Uiso   1.00
C1603  C     0.70521   0.49264   0.25903   0.00000  Uiso   1.00
C1604  C     0.54250   0.46220   0.29645   0.00000  Uiso   1.00
O1605  O     0.70750   0.46220   0.29645   0.00000  Uiso   1.00
C1606  C     0.58021   0.36764   0.38403   0.00000  Uiso   1.00
C1607  C     0.66750   0.33720   0.42145   0.00000  Uiso   1.00
O1608  O     0.58250   0.33720   0.42145   0.00000  Uiso   1.00
C1609  C     0.54479   0.49264   0.25903   0.00000  Uiso   1.00
C1610  C     0.70750   0.46220   0.29645   0.00000  Uiso   1.00
O1611  O     0.54250   0.46220   0.29645   0.00000  Uiso   1.00
C1612  C     0.66979   0.36764   0.38403   0.00000  Uiso   1.00
C1613  C     0.58250   0.33720   0.42145   0.00000  Uiso   1.00
O1614  O     0.66750   0.33720   0.42145   0.00000  Uiso   1.00
C1615  C     0.70521   0.38236   0.25903   0.00000  Uiso   1.00
C1616  C     0.54250   0.41280   0.29645   0.00000  Uiso   1.00
O1617  O     0.70750   0.41280   0.29645   0.00000  Uiso   1.00
C1618  C     0.58021   0.25736   0.38403   0.00000  Uiso   1.00
C1619  C     0.66750   0.28780   0.42145   0.00000  Uiso   1.00
O1620  O     0.58250   0.28780   0.42145   0.00000  Uiso   1.00
C1621  C     0.70521   0.36764   0.49097   0.00000  Uiso   1.00
C1622  C     0.54250   0.33720   0.45355   0.00000  Uiso   1.00
O1623  O     0.70750   0.33720   0.45355   0.00000  Uiso   1.00
C1624  C     0.58021   0.49264   0.36597   0.00000  Uiso   1.00
C1625  C     0.66750   0.46220   0.32855   0.00000  Uiso   1.00
O1626  O     0.58250   0.46220   0.32855   0.00000  Uiso   1.00
C1627  C     0.54479   0.25736   0.49097   0.00000  Uiso   1.00
C1628  C     0.70750   0.28780   0.45355   0.00000  Uiso   1.00
O1629  O     0.54250   0.28780   0.45355   0.00000  Uiso   1.00
C1630  C     0.66979   0.38236   0.36597   0.00000  Uiso   1.00
C1631  C     0.58250   0.41280   0.32855   0.00000  Uiso   1.00
O1632  O     0.66750   0.41280   0.32855   0.00000  Uiso   1.00
Al1633 Al    0.56250   0.31250   0.43750   0.00000  Uiso   1.00
Al1634 Al    0.68750   0.31250   0.43750   0.00000  Uiso   1.00
Al1635 Al    0.68750   0.43750   0.31250   0.00000  Uiso   1.00
Al1636 Al    0.56250   0.43750   0.31250   0.00000  Uiso   1.00
O1637  O     0.50000   0.31250   0.41825   0.00000  Uiso   1.00
O1638  O     0.62500   0.43750   0.29325   0.00000  Uiso   1.00
O1639  O     0.50000   0.43750   0.33176   0.00000  Uiso   1.00
O1640  O     0.62500   0.31250   0.45676   0.00000  Uiso   1.00
C1641  C     0.50000   0.26472   0.48192   0.00000  Uiso   1.00
C1642  C     0.50000   0.28082   0.46212   0.00000  Uiso   1.00
C1643  C     0.62500   0.38972   0.35693   0.00000  Uiso   1.00
C1644  C     0.62500   0.40582   0.33712   0.00000  Uiso   1.00
C1645  C     0.50000   0.36028   0.48192   0.00000  Uiso   1.00
C1646  C     0.50000   0.34417   0.46212   0.00000  Uiso   1.00
C1647  C     0.62500   0.48528   0.35693   0.00000  Uiso   1.00
C1648  C     0.62500   0.46917   0.33712   0.00000  Uiso   1.00
C1649  C     0.50000   0.38972   0.26808   0.00000  Uiso   1.00
C1650  C     0.50000   0.40582   0.28788   0.00000  Uiso   1.00
C1651  C     0.62500   0.26472   0.39308   0.00000  Uiso   1.00
C1652  C     0.62500   0.28082   0.41287   0.00000  Uiso   1.00
C1653  C     0.50000   0.48528   0.26808   0.00000  Uiso   1.00
C1654  C     0.50000   0.46917   0.28788   0.00000  Uiso   1.00
C1655  C     0.62500   0.36028   0.39308   0.00000  Uiso   1.00
C1656  C     0.62500   0.34417   0.41287   0.00000  Uiso   1.00
C1657  C     0.95521   0.25736   0.49097   0.00000  Uiso   1.00
C1658  C     0.79250   0.28780   0.45355   0.00000  Uiso   1.00
O1659  O     0.95750   0.28780   0.45355   0.00000  Uiso   1.00
C1660  C     0.83021   0.38236   0.36597   0.00000  Uiso   1.00
C1661  C     0.91750   0.41280   0.32855   0.00000  Uiso   1.00
O1662  O     0.83250   0.41280   0.32855   0.00000  Uiso   1.00
C1663  C     0.79479   0.36764   0.49097   0.00000  Uiso   1.00
C1664  C     0.95750   0.33720   0.45355   0.00000  Uiso   1.00
O1665  O     0.79250   0.33720   0.45355   0.00000  Uiso   1.00
C1666  C     0.91979   0.49264   0.36597   0.00000  Uiso   1.00
C1667  C     0.83250   0.46220   0.32855   0.00000  Uiso   1.00
O1668  O     0.91750   0.46220   0.32855   0.00000  Uiso   1.00
C1669  C     0.79479   0.38236   0.25903   0.00000  Uiso   1.00
C1670  C     0.95750   0.41280   0.29645   0.00000  Uiso   1.00
O1671  O     0.79250   0.41280   0.29645   0.00000  Uiso   1.00
C1672  C     0.91979   0.25736   0.38403   0.00000  Uiso   1.00
C1673  C     0.83250   0.28780   0.42145   0.00000  Uiso   1.00
O1674  O     0.91750   0.28780   0.42145   0.00000  Uiso   1.00
C1675  C     0.95521   0.49264   0.25903   0.00000  Uiso   1.00
C1676  C     0.79250   0.46220   0.29645   0.00000  Uiso   1.00
O1677  O     0.95750   0.46220   0.29645   0.00000  Uiso   1.00
C1678  C     0.83021   0.36764   0.38403   0.00000  Uiso   1.00
C1679  C     0.91750   0.33720   0.42145   0.00000  Uiso   1.00
O1680  O     0.83250   0.33720   0.42145   0.00000  Uiso   1.00
C1681  C     0.79479   0.49264   0.25903   0.00000  Uiso   1.00
C1682  C     0.95750   0.46220   0.29645   0.00000  Uiso   1.00
O1683  O     0.79250   0.46220   0.29645   0.00000  Uiso   1.00
C1684  C     0.91979   0.36764   0.38403   0.00000  Uiso   1.00
C1685  C     0.83250   0.33720   0.42145   0.00000  Uiso   1.00
O1686  O     0.91750   0.33720   0.42145   0.00000  Uiso   1.00
C1687  C     0.95521   0.38236   0.25903   0.00000  Uiso   1.00
C1688  C     0.79250   0.41280   0.29645   0.00000  Uiso   1.00
O1689  O     0.95750   0.41280   0.29645   0.00000  Uiso   1.00
C1690  C     0.83021   0.25736   0.38403   0.00000  Uiso   1.00
C1691  C     0.91750   0.28780   0.42145   0.00000  Uiso   1.00
O1692  O     0.83250   0.28780   0.42145   0.00000  Uiso   1.00
C1693  C     0.95521   0.36764   0.49097   0.00000  Uiso   1.00
C1694  C     0.79250   0.33720   0.45355   0.00000  Uiso   1.00
O1695  O     0.95750   0.33720   0.45355   0.00000  Uiso   1.00
C1696  C     0.83021   0.49264   0.36597   0.00000  Uiso   1.00
C1697  C     0.91750   0.46220   0.32855   0.00000  Uiso   1.00
O1698  O     0.83250   0.46220   0.32855   0.00000  Uiso   1.00
C1699  C     0.79479   0.25736   0.49097   0.00000  Uiso   1.00
C1700  C     0.95750   0.28780   0.45355   0.00000  Uiso   1.00
O1701  O     0.79250   0.28780   0.45355   0.00000  Uiso   1.00
C1702  C     0.91979   0.38236   0.36597   0.00000  Uiso   1.00
C1703  C     0.83250   0.41280   0.32855   0.00000  Uiso   1.00
O1704  O     0.91750   0.41280   0.32855   0.00000  Uiso   1.00
Al1705 Al    0.81250   0.31250   0.43750   0.00000  Uiso   1.00
Al1706 Al    0.93750   0.31250   0.43750   0.00000  Uiso   1.00
Al1707 Al    0.93750   0.43750   0.31250   0.00000  Uiso   1.00
Al1708 Al    0.81250   0.43750   0.31250   0.00000  Uiso   1.00
O1709  O     0.75000   0.31250   0.41825   0.00000  Uiso   1.00
O1710  O     0.87500   0.43750   0.29325   0.00000  Uiso   1.00
O1711  O     0.75000   0.43750   0.33176   0.00000  Uiso   1.00
O1712  O     0.87500   0.31250   0.45676   0.00000  Uiso   1.00
C1713  C     0.75000   0.26472   0.48192   0.00000  Uiso   1.00
C1714  C     0.75000   0.28082   0.46212   0.00000  Uiso   1.00
C1715  C     0.87500   0.38972   0.35693   0.00000  Uiso   1.00
C1716  C     0.87500   0.40582   0.33712   0.00000  Uiso   1.00
C1717  C     0.75000   0.36028   0.48192   0.00000  Uiso   1.00
C1718  C     0.75000   0.34417   0.46212   0.00000  Uiso   1.00
C1719  C     0.87500   0.48528   0.35693   0.00000  Uiso   1.00
C1720  C     0.87500   0.46917   0.33712   0.00000  Uiso   1.00
C1721  C     0.75000   0.38972   0.26808   0.00000  Uiso   1.00
C1722  C     0.75000   0.40582   0.28788   0.00000  Uiso   1.00
C1723  C     0.87500   0.26472   0.39308   0.00000  Uiso   1.00
C1724  C     0.87500   0.28082   0.41287   0.00000  Uiso   1.00
C1725  C     0.75000   0.48528   0.26808   0.00000  Uiso   1.00
C1726  C     0.75000   0.46917   0.28788   0.00000  Uiso   1.00
C1727  C     0.87500   0.36028   0.39308   0.00000  Uiso   1.00
C1728  C     0.87500   0.34417   0.41287   0.00000  Uiso   1.00
C1729  C     0.20521   0.50736   0.49097   0.00000  Uiso   1.00
C1730  C     0.04250   0.53780   0.45355   0.00000  Uiso   1.00
O1731  O     0.20750   0.53780   0.45355   0.00000  Uiso   1.00
C1732  C     0.08021   0.63236   0.36597   0.00000  Uiso   1.00
C1733  C     0.16750   0.66280   0.32855   0.00000  Uiso   1.00
O1734  O     0.08250   0.66280   0.32855   0.00000  Uiso   1.00
C1735  C     0.04479   0.61764   0.49097   0.00000  Uiso   1.00
C1736  C     0.20750   0.58720   0.45355   0.00000  Uiso   1.00
O1737  O     0.04250   0.58720   0.45355   0.00000  Uiso   1.00
C1738  C     0.16979   0.74264   0.36597   0.00000  Uiso   1.00
C1739  C     0.08250   0.71220   0.32855   0.00000  Uiso   1.00
O1740  O     0.16750   0.71220   0.32855   0.00000  Uiso   1.00
C1741  C     0.04479   0.63236   0.25903   0.00000  Uiso   1.00
C1742  C     0.20750   0.66280   0.29645   0.00000  Uiso   1.00
O1743  O     0.04250   0.66280   0.29645   0.00000  Uiso   1.00
C1744  C     0.16979   0.50736   0.38403   0.00000  Uiso   1.00
C1745  C     0.08250   0.53780   0.42145   0.00000  Uiso   1.00
O1746  O     0.16750   0.53780   0.42145   0.00000  Uiso   1.00
C1747  C     0.20521   0.74264   0.25903   0.00000  Uiso   1.00
C1748  C     0.04250   0.71220   0.29645   0.00000  Uiso   1.00
O1749  O     0.20750   0.71220   0.29645   0.00000  Uiso   1.00
C1750  C     0.08021   0.61764   0.38403   0.00000  Uiso   1.00
C1751  C     0.16750   0.58720   0.42145   0.00000  Uiso   1.00
O1752  O     0.08250   0.58720   0.42145   0.00000  Uiso   1.00
C1753  C     0.04479   0.74264   0.25903   0.00000  Uiso   1.00
C1754  C     0.20750   0.71220   0.29645   0.00000  Uiso   1.00
O1755  O     0.04250   0.71220   0.29645   0.00000  Uiso   1.00
C1756  C     0.16979   0.61764   0.38403   0.00000  Uiso   1.00
C1757  C     0.08250   0.58720   0.42145   0.00000  Uiso   1.00
O1758  O     0.16750   0.58720   0.42145   0.00000  Uiso   1.00
C1759  C     0.20521   0.63236   0.25903   0.00000  Uiso   1.00
C1760  C     0.04250   0.66280   0.29645   0.00000  Uiso   1.00
O1761  O     0.20750   0.66280   0.29645   0.00000  Uiso   1.00
C1762  C     0.08021   0.50736   0.38403   0.00000  Uiso   1.00
C1763  C     0.16750   0.53780   0.42145   0.00000  Uiso   1.00
O1764  O     0.08250   0.53780   0.42145   0.00000  Uiso   1.00
C1765  C     0.20521   0.61764   0.49097   0.00000  Uiso   1.00
C1766  C     0.04250   0.58720   0.45355   0.00000  Uiso   1.00
O1767  O     0.20750   0.58720   0.45355   0.00000  Uiso   1.00
C1768  C     0.08021   0.74264   0.36597   0.00000  Uiso   1.00
C1769  C     0.16750   0.71220   0.32855   0.00000  Uiso   1.00
O1770  O     0.08250   0.71220   0.32855   0.00000  Uiso   1.00
C1771  C     0.04479   0.50736   0.49097   0.00000  Uiso   1.00
C1772  C     0.20750   0.53780   0.45355   0.00000  Uiso   1.00
O1773  O     0.04250   0.53780   0.45355   0.00000  Uiso   1.00
C1774  C     0.16979   0.63236   0.36597   0.00000  Uiso   1.00
C1775  C     0.08250   0.66280   0.32855   0.00000  Uiso   1.00
O1776  O     0.16750   0.66280   0.32855   0.00000  Uiso   1.00
Al1777 Al    0.06250   0.56250   0.43750   0.00000  Uiso   1.00
Al1778 Al    0.18750   0.56250   0.43750   0.00000  Uiso   1.00
Al1779 Al    0.18750   0.68750   0.31250   0.00000  Uiso   1.00
Al1780 Al    0.06250   0.68750   0.31250   0.00000  Uiso   1.00
O1781  O     0.00000   0.56250   0.41825   0.00000  Uiso   1.00
O1782  O     0.12500   0.68750   0.29325   0.00000  Uiso   1.00
O1783  O     0.00000   0.68750   0.33176   0.00000  Uiso   1.00
O1784  O     0.12500   0.56250   0.45676   0.00000  Uiso   1.00
C1785  C     0.00000   0.51472   0.48192   0.00000  Uiso   1.00
C1786  C     0.00000   0.53082   0.46212   0.00000  Uiso   1.00
C1787  C     0.12500   0.63972   0.35693   0.00000  Uiso   1.00
C1788  C     0.12500   0.65582   0.33712   0.00000  Uiso   1.00
C1789  C     0.00000   0.61028   0.48192   0.00000  Uiso   1.00
C1790  C     0.00000   0.59418   0.46212   0.00000  Uiso   1.00
C1791  C     0.12500   0.73528   0.35693   0.00000  Uiso   1.00
C1792  C     0.12500   0.71917   0.33712   0.00000  Uiso   1.00
C1793  C     0.00000   0.63972   0.26808   0.00000  Uiso   1.00
C1794  C     0.00000   0.65582   0.28788   0.00000  Uiso   1.00
C1795  C     0.12500   0.51472   0.39308   0.00000  Uiso   1.00
C1796  C     0.12500   0.53082   0.41287   0.00000  Uiso   1.00
C1797  C     0.00000   0.73528   0.26808   0.00000  Uiso   1.00
C1798  C     0.00000   0.71917   0.28788   0.00000  Uiso   1.00
C1799  C     0.12500   0.61028   0.39308   0.00000  Uiso   1.00
C1800  C     0.12500   0.59418   0.41287   0.00000  Uiso   1.00
C1801  C     0.45521   0.50736   0.49097   0.00000  Uiso   1.00
C1802  C     0.29250   0.53780   0.45355   0.00000  Uiso   1.00
O1803  O     0.45750   0.53780   0.45355   0.00000  Uiso   1.00
C1804  C     0.33021   0.63236   0.36597   0.00000  Uiso   1.00
C1805  C     0.41750   0.66280   0.32855   0.00000  Uiso   1.00
O1806  O     0.33250   0.66280   0.32855   0.00000  Uiso   1.00
C1807  C     0.29479   0.61764   0.49097   0.00000  Uiso   1.00
C1808  C     0.45750   0.58720   0.45355   0.00000  Uiso   1.00
O1809  O     0.29250   0.58720   0.45355   0.00000  Uiso   1.00
C1810  C     0.41979   0.74264   0.36597   0.00000  Uiso   1.00
C1811  C     0.33250   0.71220   0.32855   0.00000  Uiso   1.00
O1812  O     0.41750   0.71220   0.32855   0.00000  Uiso   1.00
C1813  C     0.29479   0.63236   0.25903   0.00000  Uiso   1.00
C1814  C     0.45750   0.66280   0.29645   0.00000  Uiso   1.00
O1815  O     0.29250   0.66280   0.29645   0.00000  Uiso   1.00
C1816  C     0.41979   0.50736   0.38403   0.00000  Uiso   1.00
C1817  C     0.33250   0.53780   0.42145   0.00000  Uiso   1.00
O1818  O     0.41750   0.53780   0.42145   0.00000  Uiso   1.00
C1819  C     0.45521   0.74264   0.25903   0.00000  Uiso   1.00
C1820  C     0.29250   0.71220   0.29645   0.00000  Uiso   1.00
O1821  O     0.45750   0.71220   0.29645   0.00000  Uiso   1.00
C1822  C     0.33021   0.61764   0.38403   0.00000  Uiso   1.00
C1823  C     0.41750   0.58720   0.42145   0.00000  Uiso   1.00
O1824  O     0.33250   0.58720   0.42145   0.00000  Uiso   1.00
C1825  C     0.29479   0.74264   0.25903   0.00000  Uiso   1.00
C1826  C     0.45750   0.71220   0.29645   0.00000  Uiso   1.00
O1827  O     0.29250   0.71220   0.29645   0.00000  Uiso   1.00
C1828  C     0.41979   0.61764   0.38403   0.00000  Uiso   1.00
C1829  C     0.33250   0.58720   0.42145   0.00000  Uiso   1.00
O1830  O     0.41750   0.58720   0.42145   0.00000  Uiso   1.00
C1831  C     0.45521   0.63236   0.25903   0.00000  Uiso   1.00
C1832  C     0.29250   0.66280   0.29645   0.00000  Uiso   1.00
O1833  O     0.45750   0.66280   0.29645   0.00000  Uiso   1.00
C1834  C     0.33021   0.50736   0.38403   0.00000  Uiso   1.00
C1835  C     0.41750   0.53780   0.42145   0.00000  Uiso   1.00
O1836  O     0.33250   0.53780   0.42145   0.00000  Uiso   1.00
C1837  C     0.45521   0.61764   0.49097   0.00000  Uiso   1.00
C1838  C     0.29250   0.58720   0.45355   0.00000  Uiso   1.00
O1839  O     0.45750   0.58720   0.45355   0.00000  Uiso   1.00
C1840  C     0.33021   0.74264   0.36597   0.00000  Uiso   1.00
C1841  C     0.41750   0.71220   0.32855   0.00000  Uiso   1.00
O1842  O     0.33250   0.71220   0.32855   0.00000  Uiso   1.00
C1843  C     0.29479   0.50736   0.49097   0.00000  Uiso   1.00
C1844  C     0.45750   0.53780   0.45355   0.00000  Uiso   1.00
O1845  O     0.29250   0.53780   0.45355   0.00000  Uiso   1.00
C1846  C     0.41979   0.63236   0.36597   0.00000  Uiso   1.00
C1847  C     0.33250   0.66280   0.32855   0.00000  Uiso   1.00
O1848  O     0.41750   0.66280   0.32855   0.00000  Uiso   1.00
Al1849 Al    0.31250   0.56250   0.43750   0.00000  Uiso   1.00
Al1850 Al    0.43750   0.56250   0.43750   0.00000  Uiso   1.00
Al1851 Al    0.43750   0.68750   0.31250   0.00000  Uiso   1.00
Al1852 Al    0.31250   0.68750   0.31250   0.00000  Uiso   1.00
O1853  O     0.25000   0.56250   0.41825   0.00000  Uiso   1.00
O1854  O     0.37500   0.68750   0.29325   0.00000  Uiso   1.00
O1855  O     0.25000   0.68750   0.33176   0.00000  Uiso   1.00
O1856  O     0.37500   0.56250   0.45676   0.00000  Uiso   1.00
C1857  C     0.25000   0.51472   0.48192   0.00000  Uiso   1.00
C1858  C     0.25000   0.53082   0.46212   0.00000  Uiso   1.00
C1859  C     0.37500   0.63972   0.35693   0.00000  Uiso   1.00
C1860  C     0.37500   0.65582   0.33712   0.00000  Uiso   1.00
C1861  C     0.25000   0.61028   0.48192   0.00000  Uiso   1.00
C1862  C     0.25000   0.59418   0.46212   0.00000  Uiso   1.00
C1863  C     0.37500   0.73528   0.35693   0.00000  Uiso   1.00
C1864  C     0.37500   0.71917   0.33712   0.00000  Uiso   1.00
C1865  C     0.25000   0.63972   0.26808   0.00000  Uiso   1.00
C1866  C     0.25000   0.65582   0.28788   0.00000  Uiso   1.00
C1867  C     0.37500   0.51472   0.39308   0.00000  Uiso   1.00
C1868  C     0.37500   0.53082   0.41287   0.00000  Uiso   1.00
C1869  C     0.25000   0.73528   0.26808   0.00000  Uiso   1.00
C1870  C     0.25000   0.71917   0.28788   0.00000  Uiso   1.00
C1871  C     0.37500   0.61028   0.39308   0.00000  Uiso   1.00
C1872  C     0.37500   0.59418   0.41287   0.00000  Uiso   1.00
C1873  C     0.70521   0.50736   0.49097   0.00000  Uiso   1.00
C1874  C     0.54250   0.53780   0.45355   0.00000  Uiso   1.00
O1875  O     0.70750   0.53780   0.45355   0.00000  Uiso   1.00
C1876  C     0.58021   0.63236   0.36597   0.00000  Uiso   1.00
C1877  C     0.66750   0.66280   0.32855   0.00000  Uiso   1.00
O1878  O     0.58250   0.66280   0.32855   0.00000  Uiso   1.00
C1879  C     0.54479   0.61764   0.49097   0.00000  Uiso   1.00
C1880  C     0.70750   0.58720   0.45355   0.00000  Uiso   1.00
O1881  O     0.54250   0.58720   0.45355   0.00000  Uiso   1.00
C1882  C     0.66979   0.74264   0.36597   0.00000  Uiso   1.00
C1883  C     0.58250   0.71220   0.32855   0.00000  Uiso   1.00
O1884  O     0.66750   0.71220   0.32855   0.00000  Uiso   1.00
C1885  C     0.54479   0.63236   0.25903   0.00000  Uiso   1.00
C1886  C     0.70750   0.66280   0.29645   0.00000  Uiso   1.00
O1887  O     0.54250   0.66280   0.29645   0.00000  Uiso   1.00
C1888  C     0.66979   0.50736   0.38403   0.00000  Uiso   1.00
C1889  C     0.58250   0.53780   0.42145   0.00000  Uiso   1.00
O1890  O     0.66750   0.53780   0.42145   0.00000  Uiso   1.00
C1891  C     0.70521   0.74264   0.25903   0.00000  Uiso   1.00
C1892  C     0.54250   0.71220   0.29645   0.00000  Uiso   1.00
O1893  O     0.70750   0.71220   0.29645   0.00000  Uiso   1.00
C1894  C     0.58021   0.61764   0.38403   0.00000  Uiso   1.00
C1895  C     0.66750   0.58720   0.42145   0.00000  Uiso   1.00
O1896  O     0.58250   0.58720   0.42145   0.00000  Uiso   1.00
C1897  C     0.54479   0.74264   0.25903   0.00000  Uiso   1.00
C1898  C     0.70750   0.71220   0.29645   0.00000  Uiso   1.00
O1899  O     0.54250   0.71220   0.29645   0.00000  Uiso   1.00
C1900  C     0.66979   0.61764   0.38403   0.00000  Uiso   1.00
C1901  C     0.58250   0.58720   0.42145   0.00000  Uiso   1.00
O1902  O     0.66750   0.58720   0.42145   0.00000  Uiso   1.00
C1903  C     0.70521   0.63236   0.25903   0.00000  Uiso   1.00
C1904  C     0.54250   0.66280   0.29645   0.00000  Uiso   1.00
O1905  O     0.70750   0.66280   0.29645   0.00000  Uiso   1.00
C1906  C     0.58021   0.50736   0.38403   0.00000  Uiso   1.00
C1907  C     0.66750   0.53780   0.42145   0.00000  Uiso   1.00
O1908  O     0.58250   0.53780   0.42145   0.00000  Uiso   1.00
C1909  C     0.70521   0.61764   0.49097   0.00000  Uiso   1.00
C1910  C     0.54250   0.58720   0.45355   0.00000  Uiso   1.00
O1911  O     0.70750   0.58720   0.45355   0.00000  Uiso   1.00
C1912  C     0.58021   0.74264   0.36597   0.00000  Uiso   1.00
C1913  C     0.66750   0.71220   0.32855   0.00000  Uiso   1.00
O1914  O     0.58250   0.71220   0.32855   0.00000  Uiso   1.00
C1915  C     0.54479   0.50736   0.49097   0.00000  Uiso   1.00
C1916  C     0.70750   0.53780   0.45355   0.00000  Uiso   1.00
O1917  O     0.54250   0.53780   0.45355   0.00000  Uiso   1.00
C1918  C     0.66979   0.63236   0.36597   0.00000  Uiso   1.00
C1919  C     0.58250   0.66280   0.32855   0.00000  Uiso   1.00
O1920  O     0.66750   0.66280   0.32855   0.00000  Uiso   1.00
Al1921 Al    0.56250   0.56250   0.43750   0.00000  Uiso   1.00
Al1922 Al    0.68750   0.56250   0.43750   0.00000  Uiso   1.00
Al1923 Al    0.68750   0.68750   0.31250   0.00000  Uiso   1.00
Al1924 Al    0.56250   0.68750   0.31250   0.00000  Uiso   1.00
O1925  O     0.50000   0.56250   0.41825   0.00000  Uiso   1.00
O1926  O     0.62500   0.68750   0.29325   0.00000  Uiso   1.00
O1927  O     0.50000   0.68750   0.33176   0.00000  Uiso   1.00
O1928  O     0.62500   0.56250   0.45676   0.00000  Uiso   1.00
C1929  C     0.50000   0.51472   0.48192   0.00000  Uiso   1.00
C1930  C     0.50000   0.53082   0.46212   0.00000  Uiso   1.00
C1931  C     0.62500   0.63972   0.35693   0.00000  Uiso   1.00
C1932  C     0.62500   0.65582   0.33712   0.00000  Uiso   1.00
C1933  C     0.50000   0.61028   0.48192   0.00000  Uiso   1.00
C1934  C     0.50000   0.59418   0.46212   0.00000  Uiso   1.00
C1935  C     0.62500   0.73528   0.35693   0.00000  Uiso   1.00
C1936  C     0.62500   0.71917   0.33712   0.00000  Uiso   1.00
C1937  C     0.50000   0.63972   0.26808   0.00000  Uiso   1.00
C1938  C     0.50000   0.65582   0.28788   0.00000  Uiso   1.00
C1939  C     0.62500   0.51472   0.39308   0.00000  Uiso   1.00
C1940  C     0.62500   0.53082   0.41287   0.00000  Uiso   1.00
C1941  C     0.50000   0.73528   0.26808   0.00000  Uiso   1.00
C1942  C     0.50000   0.71917   0.28788   0.00000  Uiso   1.00
C1943  C     0.62500   0.61028   0.39308   0.00000  Uiso   1.00
C1944  C     0.62500   0.59418   0.41287   0.00000  Uiso   1.00
C1945  C     0.95521   0.50736   0.49097   0.00000  Uiso   1.00
C1946  C     0.79250   0.53780   0.45355   0.00000  Uiso   1.00
O1947  O     0.95750   0.53780   0.45355   0.00000  Uiso   1.00
C1948  C     0.83021   0.63236   0.36597   0.00000  Uiso   1.00
C1949  C     0.91750   0.66280   0.32855   0.00000  Uiso   1.00
O1950  O     0.83250   0.66280   0.32855   0.00000  Uiso   1.00
C1951  C     0.79479   0.61764   0.49097   0.00000  Uiso   1.00
C1952  C     0.95750   0.58720   0.45355   0.00000  Uiso   1.00
O1953  O     0.79250   0.58720   0.45355   0.00000  Uiso   1.00
C1954  C     0.91979   0.74264   0.36597   0.00000  Uiso   1.00
C1955  C     0.83250   0.71220   0.32855   0.00000  Uiso   1.00
O1956  O     0.91750   0.71220   0.32855   0.00000  Uiso   1.00
C1957  C     0.79479   0.63236   0.25903   0.00000  Uiso   1.00
C1958  C     0.95750   0.66280   0.29645   0.00000  Uiso   1.00
O1959  O     0.79250   0.66280   0.29645   0.00000  Uiso   1.00
C1960  C     0.91979   0.50736   0.38403   0.00000  Uiso   1.00
C1961  C     0.83250   0.53780   0.42145   0.00000  Uiso   1.00
O1962  O     0.91750   0.53780   0.42145   0.00000  Uiso   1.00
C1963  C     0.95521   0.74264   0.25903   0.00000  Uiso   1.00
C1964  C     0.79250   0.71220   0.29645   0.00000  Uiso   1.00
O1965  O     0.95750   0.71220   0.29645   0.00000  Uiso   1.00
C1966  C     0.83021   0.61764   0.38403   0.00000  Uiso   1.00
C1967  C     0.91750   0.58720   0.42145   0.00000  Uiso   1.00
O1968  O     0.83250   0.58720   0.42145   0.00000  Uiso   1.00
C1969  C     0.79479   0.74264   0.25903   0.00000  Uiso   1.00
C1970  C     0.95750   0.71220   0.29645   0.00000  Uiso   1.00
O1971  O     0.79250   0.71220   0.29645   0.00000  Uiso   1.00
C1972  C     0.91979   0.61764   0.38403   0.00000  Uiso   1.00
C1973  C     0.83250   0.58720   0.42145   0.00000  Uiso   1.00
O1974  O     0.91750   0.58720   0.42145   0.00000  Uiso   1.00
C1975  C     0.95521   0.63236   0.25903   0.00000  Uiso   1.00
C1976  C     0.79250   0.66280   0.29645   0.00000  Uiso   1.00
O1977  O     0.95750   0.66280   0.29645   0.00000  Uiso   1.00
C1978  C     0.83021   0.50736   0.38403   0.00000  Uiso   1.00
C1979  C     0.91750   0.53780   0.42145   0.00000  Uiso   1.00
O1980  O     0.83250   0.53780   0.42145   0.00000  Uiso   1.00
C1981  C     0.95521   0.61764   0.49097   0.00000  Uiso   1.00
C1982  C     0.79250   0.58720   0.45355   0.00000  Uiso   1.00
O1983  O     0.95750   0.58720   0.45355   0.00000  Uiso   1.00
C1984  C     0.83021   0.74264   0.36597   0.00000  Uiso   1.00
C1985  C     0.91750   0.71220   0.32855   0.00000  Uiso   1.00
O1986  O     0.83250   0.71220   0.32855   0.00000  Uiso   1.00
C1987  C     0.79479   0.50736   0.49097   0.00000  Uiso   1.00
C1988  C     0.95750   0.53780   0.45355   0.00000  Uiso   1.00
O1989  O     0.79250   0.53780   0.45355   0.00000  Uiso   1.00
C1990  C     0.91979   0.63236   0.36597   0.00000  Uiso   1.00
C1991  C     0.83250   0.66280   0.32855   0.00000  Uiso   1.00
O1992  O     0.91750   0.66280   0.32855   0.00000  Uiso   1.00
Al1993 Al    0.81250   0.56250   0.43750   0.00000  Uiso   1.00
Al1994 Al    0.93750   0.56250   0.43750   0.00000  Uiso   1.00
Al1995 Al    0.93750   0.68750   0.31250   0.00000  Uiso   1.00
Al1996 Al    0.81250   0.68750   0.31250   0.00000  Uiso   1.00
O1997  O     0.75000   0.56250   0.41825   0.00000  Uiso   1.00
O1998  O     0.87500   0.68750   0.29325   0.00000  Uiso   1.00
O1999  O     0.75000   0.68750   0.33176   0.00000  Uiso   1.00
O2000  O     0.87500   0.56250   0.45676   0.00000  Uiso   1.00
C2001  C     0.75000   0.51472   0.48192   0.00000  Uiso   1.00
C2002  C     0.75000   0.53082   0.46212   0.00000  Uiso   1.00
C2003  C     0.87500   0.63972   0.35693   0.00000  Uiso   1.00
C2004  C     0.87500   0.65582   0.33712   0.00000  Uiso   1.00
C2005  C     0.75000   0.61028   0.48192   0.00000  Uiso   1.00
C2006  C     0.75000   0.59418   0.46212   0.00000  Uiso   1.00
C2007  C     0.87500   0.73528   0.35693   0.00000  Uiso   1.00
C2008  C     0.87500   0.71917   0.33712   0.00000  Uiso   1.00
C2009  C     0.75000   0.63972   0.26808   0.00000  Uiso   1.00
C2010  C     0.75000   0.65582   0.28788   0.00000  Uiso   1.00
C2011  C     0.87500   0.51472   0.39308   0.00000  Uiso   1.00
C2012  C     0.87500   0.53082   0.41287   0.00000  Uiso   1.00
C2013  C     0.75000   0.73528   0.26808   0.00000  Uiso   1.00
C2014  C     0.75000   0.71917   0.28788   0.00000  Uiso   1.00
C2015  C     0.87500   0.61028   0.39308   0.00000  Uiso   1.00
C2016  C     0.87500   0.59418   0.41287   0.00000  Uiso   1.00
C2017  C     0.20521   0.75736   0.49097   0.00000  Uiso   1.00
C2018  C     0.04250   0.78780   0.45355   0.00000  Uiso   1.00
O2019  O     0.20750   0.78780   0.45355   0.00000  Uiso   1.00
C2020  C     0.08021   0.88236   0.36597   0.00000  Uiso   1.00
C2021  C     0.16750   0.91280   0.32855   0.00000  Uiso   1.00
O2022  O     0.08250   0.91280   0.32855   0.00000  Uiso   1.00
C2023  C     0.04479   0.86764   0.49097   0.00000  Uiso   1.00
C2024  C     0.20750   0.83720   0.45355   0.00000  Uiso   1.00
O2025  O     0.04250   0.83720   0.45355   0.00000  Uiso   1.00
C2026  C     0.16979   0.99264   0.36597   0.00000  Uiso   1.00
C2027  C     0.08250   0.96220   0.32855   0.00000  Uiso   1.00
O2028  O     0.16750   0.96220   0.32855   0.00000  Uiso   1.00
C2029  C     0.04479   0.88236   0.25903   0.00000  Uiso   1.00
C2030  C     0.20750   0.91280   0.29645   0.00000  Uiso   1.00
O2031  O     0.04250   0.91280   0.29645   0.00000  Uiso   1.00
C2032  C     0.16979   0.75736   0.38403   0.00000  Uiso   1.00
C2033  C     0.08250   0.78780   0.42145   0.00000  Uiso   1.00
O2034  O     0.16750   0.78780   0.42145   0.00000  Uiso   1.00
C2035  C     0.20521   0.99264   0.25903   0.00000  Uiso   1.00
C2036  C     0.04250   0.96220   0.29645   0.00000  Uiso   1.00
O2037  O     0.20750   0.96220   0.29645   0.00000  Uiso   1.00
C2038  C     0.08021   0.86764   0.38403   0.00000  Uiso   1.00
C2039  C     0.16750   0.83720   0.42145   0.00000  Uiso   1.00
O2040  O     0.08250   0.83720   0.42145   0.00000  Uiso   1.00
C2041  C     0.04479   0.99264   0.25903   0.00000  Uiso   1.00
C2042  C     0.20750   0.96220   0.29645   0.00000  Uiso   1.00
O2043  O     0.04250   0.96220   0.29645   0.00000  Uiso   1.00
C2044  C     0.16979   0.86764   0.38403   0.00000  Uiso   1.00
C2045  C     0.08250   0.83720   0.42145   0.00000  Uiso   1.00
O2046  O     0.16750   0.83720   0.42145   0.00000  Uiso   1.00
C2047  C     0.20521   0.88236   0.25903   0.00000  Uiso   1.00
C2048  C     0.04250   0.91280   0.29645   0.00000  Uiso   1.00
O2049  O     0.20750   0.91280   0.29645   0.00000  Uiso   1.00
C2050  C     0.08021   0.75736   0.38403   0.00000  Uiso   1.00
C2051  C     0.16750   0.78780   0.42145   0.00000  Uiso   1.00
O2052  O     0.08250   0.78780   0.42145   0.00000  Uiso   1.00
C2053  C     0.20521   0.86764   0.49097   0.00000  Uiso   1.00
C2054  C     0.04250   0.83720   0.45355   0.00000  Uiso   1.00
O2055  O     0.20750   0.83720   0.45355   0.00000  Uiso   1.00
C2056  C     0.08021   0.99264   0.36597   0.00000  Uiso   1.00
C2057  C     0.16750   0.96220   0.32855   0.00000  Uiso   1.00
O2058  O     0.08250   0.96220   0.32855   0.00000  Uiso   1.00
C2059  C     0.04479   0.75736   0.49097   0.00000  Uiso   1.00
C2060  C     0.20750   0.78780   0.45355   0.00000  Uiso   1.00
O2061  O     0.04250   0.78780   0.45355   0.00000  Uiso   1.00
C2062  C     0.16979   0.88236   0.36597   0.00000  Uiso   1.00
C2063  C     0.08250   0.91280   0.32855   0.00000  Uiso   1.00
O2064  O     0.16750   0.91280   0.32855   0.00000  Uiso   1.00
Al2065 Al    0.06250   0.81250   0.43750   0.00000  Uiso   1.00
Al2066 Al    0.18750   0.81250   0.43750   0.00000  Uiso   1.00
Al2067 Al    0.18750   0.93750   0.31250   0.00000  Uiso   1.00
Al2068 Al    0.06250   0.93750   0.31250   0.00000  Uiso   1.00
O2069  O     0.00000   0.81250   0.41825   0.00000  Uiso   1.00
O2070  O     0.12500   0.93750   0.29325   0.00000  Uiso   1.00
O2071  O     0.00000   0.93750   0.33176   0.00000  Uiso   1.00
O2072  O     0.12500   0.81250   0.45676   0.00000  Uiso   1.00
C2073  C     0.00000   0.76472   0.48192   0.00000  Uiso   1.00
C2074  C     0.00000   0.78082   0.46212   0.00000  Uiso   1.00
C2075  C     0.12500   0.88972   0.35693   0.00000  Uiso   1.00
C2076  C     0.12500   0.90582   0.33712   0.00000  Uiso   1.00
C2077  C     0.00000   0.86028   0.48192   0.00000  Uiso   1.00
C2078  C     0.00000   0.84418   0.46212   0.00000  Uiso   1.00
C2079  C     0.12500   0.98528   0.35693   0.00000  Uiso   1.00
C2080  C     0.12500   0.96917   0.33712   0.00000  Uiso   1.00
C2081  C     0.00000   0.88972   0.26808   0.00000  Uiso   1.00
C2082  C     0.00000   0.90582   0.28788   0.00000  Uiso   1.00
C2083  C     0.12500   0.76472   0.39308   0.00000  Uiso   1.00
C2084  C     0.12500   0.78082   0.41287   0.00000  Uiso   1.00
C2085  C     0.00000   0.98528   0.26808   0.00000  Uiso   1.00
C2086  C     0.00000   0.96917   0.28788   0.00000  Uiso   1.00
C2087  C     0.12500   0.86028   0.39308   0.00000  Uiso   1.00
C2088  C     0.12500   0.84418   0.41287   0.00000  Uiso   1.00
C2089  C     0.45521   0.75736   0.49097   0.00000  Uiso   1.00
C2090  C     0.29250   0.78780   0.45355   0.00000  Uiso   1.00
O2091  O     0.45750   0.78780   0.45355   0.00000  Uiso   1.00
C2092  C     0.33021   0.88236   0.36597   0.00000  Uiso   1.00
C2093  C     0.41750   0.91280   0.32855   0.00000  Uiso   1.00
O2094  O     0.33250   0.91280   0.32855   0.00000  Uiso   1.00
C2095  C     0.29479   0.86764   0.49097   0.00000  Uiso   1.00
C2096  C     0.45750   0.83720   0.45355   0.00000  Uiso   1.00
O2097  O     0.29250   0.83720   0.45355   0.00000  Uiso   1.00
C2098  C     0.41979   0.99264   0.36597   0.00000  Uiso   1.00
C2099  C     0.33250   0.96220   0.32855   0.00000  Uiso   1.00
O2100  O     0.41750   0.96220   0.32855   0.00000  Uiso   1.00
C2101  C     0.29479   0.88236   0.25903   0.00000  Uiso   1.00
C2102  C     0.45750   0.91280   0.29645   0.00000  Uiso   1.00
O2103  O     0.29250   0.91280   0.29645   0.00000  Uiso   1.00
C2104  C     0.41979   0.75736   0.38403   0.00000  Uiso   1.00
C2105  C     0.33250   0.78780   0.42145   0.00000  Uiso   1.00
O2106  O     0.41750   0.78780   0.42145   0.00000  Uiso   1.00
C2107  C     0.45521   0.99264   0.25903   0.00000  Uiso   1.00
C2108  C     0.29250   0.96220   0.29645   0.00000  Uiso   1.00
O2109  O     0.45750   0.96220   0.29645   0.00000  Uiso   1.00
C2110  C     0.33021   0.86764   0.38403   0.00000  Uiso   1.00
C2111  C     0.41750   0.83720   0.42145   0.00000  Uiso   1.00
O2112  O     0.33250   0.83720   0.42145   0.00000  Uiso   1.00
C2113  C     0.29479   0.99264   0.25903   0.00000  Uiso   1.00
C2114  C     0.45750   0.96220   0.29645   0.00000  Uiso   1.00
O2115  O     0.29250   0.96220   0.29645   0.00000  Uiso   1.00
C2116  C     0.41979   0.86764   0.38403   0.00000  Uiso   1.00
C2117  C     0.33250   0.83720   0.42145   0.00000  Uiso   1.00
O2118  O     0.41750   0.83720   0.42145   0.00000  Uiso   1.00
C2119  C     0.45521   0.88236   0.25903   0.00000  Uiso   1.00
C2120  C     0.29250   0.91280   0.29645   0.00000  Uiso   1.00
O2121  O     0.45750   0.91280   0.29645   0.00000  Uiso   1.00
C2122  C     0.33021   0.75736   0.38403   0.00000  Uiso   1.00
C2123  C     0.41750   0.78780   0.42145   0.00000  Uiso   1.00
O2124  O     0.33250   0.78780   0.42145   0.00000  Uiso   1.00
C2125  C     0.45521   0.86764   0.49097   0.00000  Uiso   1.00
C2126  C     0.29250   0.83720   0.45355   0.00000  Uiso   1.00
O2127  O     0.45750   0.83720   0.45355   0.00000  Uiso   1.00
C2128  C     0.33021   0.99264   0.36597   0.00000  Uiso   1.00
C2129  C     0.41750   0.96220   0.32855   0.00000  Uiso   1.00
O2130  O     0.33250   0.96220   0.32855   0.00000  Uiso   1.00
C2131  C     0.29479   0.75736   0.49097   0.00000  Uiso   1.00
C2132  C     0.45750   0.78780   0.45355   0.00000  Uiso   1.00
O2133  O     0.29250   0.78780   0.45355   0.00000  Uiso   1.00
C2134  C     0.41979   0.88236   0.36597   0.00000  Uiso   1.00
C2135  C     0.33250   0.91280   0.32855   0.00000  Uiso   1.00
O2136  O     0.41750   0.91280   0.32855   0.00000  Uiso   1.00
Al2137 Al    0.31250   0.81250   0.43750   0.00000  Uiso   1.00
Al2138 Al    0.43750   0.81250   0.43750   0.00000  Uiso   1.00
Al2139 Al    0.43750   0.93750   0.31250   0.00000  Uiso   1.00
Al2140 Al    0.31250   0.93750   0.31250   0.00000  Uiso   1.00
O2141  O     0.25000   0.81250   0.41825   0.00000  Uiso   1.00
O2142  O     0.37500   0.93750   0.29325   0.00000  Uiso   1.00
O2143  O     0.25000   0.93750   0.33176   0.00000  Uiso   1.00
O2144  O     0.37500   0.81250   0.45676   0.00000  Uiso   1.00
C2145  C     0.25000   0.76472   0.48192   0.00000  Uiso   1.00
C2146  C     0.25000   0.78082   0.46212   0.00000  Uiso   1.00
C2147  C     0.37500   0.88972   0.35693   0.00000  Uiso   1.00
C2148  C     0.37500   0.90582   0.33712   0.00000  Uiso   1.00
C2149  C     0.25000   0.86028   0.48192   0.00000  Uiso   1.00
C2150  C     0.25000   0.84418   0.46212   0.00000  Uiso   1.00
C2151  C     0.37500   0.98528   0.35693   0.00000  Uiso   1.00
C2152  C     0.37500   0.96917   0.33712   0.00000  Uiso   1.00
C2153  C     0.25000   0.88972   0.26808   0.00000  Uiso   1.00
C2154  C     0.25000   0.90582   0.28788   0.00000  Uiso   1.00
C2155  C     0.37500   0.76472   0.39308   0.00000  Uiso   1.00
C2156  C     0.37500   0.78082   0.41287   0.00000  Uiso   1.00
C2157  C     0.25000   0.98528   0.26808   0.00000  Uiso   1.00
C2158  C     0.25000   0.96917   0.28788   0.00000  Uiso   1.00
C2159  C     0.37500   0.86028   0.39308   0.00000  Uiso   1.00
C2160  C     0.37500   0.84418   0.41287   0.00000  Uiso   1.00
C2161  C     0.70521   0.75736   0.49097   0.00000  Uiso   1.00
C2162  C     0.54250   0.78780   0.45355   0.00000  Uiso   1.00
O2163  O     0.70750   0.78780   0.45355   0.00000  Uiso   1.00
C2164  C     0.58021   0.88236   0.36597   0.00000  Uiso   1.00
C2165  C     0.66750   0.91280   0.32855   0.00000  Uiso   1.00
O2166  O     0.58250   0.91280   0.32855   0.00000  Uiso   1.00
C2167  C     0.54479   0.86764   0.49097   0.00000  Uiso   1.00
C2168  C     0.70750   0.83720   0.45355   0.00000  Uiso   1.00
O2169  O     0.54250   0.83720   0.45355   0.00000  Uiso   1.00
C2170  C     0.66979   0.99264   0.36597   0.00000  Uiso   1.00
C2171  C     0.58250   0.96220   0.32855   0.00000  Uiso   1.00
O2172  O     0.66750   0.96220   0.32855   0.00000  Uiso   1.00
C2173  C     0.54479   0.88236   0.25903   0.00000  Uiso   1.00
C2174  C     0.70750   0.91280   0.29645   0.00000  Uiso   1.00
O2175  O     0.54250   0.91280   0.29645   0.00000  Uiso   1.00
C2176  C     0.66979   0.75736   0.38403   0.00000  Uiso   1.00
C2177  C     0.58250   0.78780   0.42145   0.00000  Uiso   1.00
O2178  O     0.66750   0.78780   0.42145   0.00000  Uiso   1.00
C2179  C     0.70521   0.99264   0.25903   0.00000  Uiso   1.00
C2180  C     0.54250   0.96220   0.29645   0.00000  Uiso   1.00
O2181  O     0.70750   0.96220   0.29645   0.00000  Uiso   1.00
C2182  C     0.58021   0.86764   0.38403   0.00000  Uiso   1.00
C2183  C     0.66750   0.83720   0.42145   0.00000  Uiso   1.00
O2184  O     0.58250   0.83720   0.42145   0.00000  Uiso   1.00
C2185  C     0.54479   0.99264   0.25903   0.00000  Uiso   1.00
C2186  C     0.70750   0.96220   0.29645   0.00000  Uiso   1.00
O2187  O     0.54250   0.96220   0.29645   0.00000  Uiso   1.00
C2188  C     0.66979   0.86764   0.38403   0.00000  Uiso   1.00
C2189  C     0.58250   0.83720   0.42145   0.00000  Uiso   1.00
O2190  O     0.66750   0.83720   0.42145   0.00000  Uiso   1.00
C2191  C     0.70521   0.88236   0.25903   0.00000  Uiso   1.00
C2192  C     0.54250   0.91280   0.29645   0.00000  Uiso   1.00
O2193  O     0.70750   0.91280   0.29645   0.00000  Uiso   1.00
C2194  C     0.58021   0.75736   0.38403   0.00000  Uiso   1.00
C2195  C     0.66750   0.78780   0.42145   0.00000  Uiso   1.00
O2196  O     0.58250   0.78780   0.42145   0.00000  Uiso   1.00
C2197  C     0.70521   0.86764   0.49097   0.00000  Uiso   1.00
C2198  C     0.54250   0.83720   0.45355   0.00000  Uiso   1.00
O2199  O     0.70750   0.83720   0.45355   0.00000  Uiso   1.00
C2200  C     0.58021   0.99264   0.36597   0.00000  Uiso   1.00
C2201  C     0.66750   0.96220   0.32855   0.00000  Uiso   1.00
O2202  O     0.58250   0.96220   0.32855   0.00000  Uiso   1.00
C2203  C     0.54479   0.75736   0.49097   0.00000  Uiso   1.00
C2204  C     0.70750   0.78780   0.45355   0.00000  Uiso   1.00
O2205  O     0.54250   0.78780   0.45355   0.00000  Uiso   1.00
C2206  C     0.66979   0.88236   0.36597   0.00000  Uiso   1.00
C2207  C     0.58250   0.91280   0.32855   0.00000  Uiso   1.00
O2208  O     0.66750   0.91280   0.32855   0.00000  Uiso   1.00
Al2209 Al    0.56250   0.81250   0.43750   0.00000  Uiso   1.00
Al2210 Al    0.68750   0.81250   0.43750   0.00000  Uiso   1.00
Al2211 Al    0.68750   0.93750   0.31250   0.00000  Uiso   1.00
Al2212 Al    0.56250   0.93750   0.31250   0.00000  Uiso   1.00
O2213  O     0.50000   0.81250   0.41825   0.00000  Uiso   1.00
O2214  O     0.62500   0.93750   0.29325   0.00000  Uiso   1.00
O2215  O     0.50000   0.93750   0.33176   0.00000  Uiso   1.00
O2216  O     0.62500   0.81250   0.45676   0.00000  Uiso   1.00
C2217  C     0.50000   0.76472   0.48192   0.00000  Uiso   1.00
C2218  C     0.50000   0.78082   0.46212   0.00000  Uiso   1.00
C2219  C     0.62500   0.88972   0.35693   0.00000  Uiso   1.00
C2220  C     0.62500   0.90582   0.33712   0.00000  Uiso   1.00
C2221  C     0.50000   0.86028   0.48192   0.00000  Uiso   1.00
C2222  C     0.50000   0.84418   0.46212   0.00000  Uiso   1.00
C2223  C     0.62500   0.98528   0.35693   0.00000  Uiso   1.00
C2224  C     0.62500   0.96917   0.33712   0.00000  Uiso   1.00
C2225  C     0.50000   0.88972   0.26808   0.00000  Uiso   1.00
C2226  C     0.50000   0.90582   0.28788   0.00000  Uiso   1.00
C2227  C     0.62500   0.76472   0.39308   0.00000  Uiso   1.00
C2228  C     0.62500   0.78082   0.41287   0.00000  Uiso   1.00
C2229  C     0.50000   0.98528   0.26808   0.00000  Uiso   1.00
C2230  C     0.50000   0.96917   0.28788   0.00000  Uiso   1.00
C2231  C     0.62500   0.86028   0.39308   0.00000  Uiso   1.00
C2232  C     0.62500   0.84418   0.41287   0.00000  Uiso   1.00
C2233  C     0.95521   0.75736   0.49097   0.00000  Uiso   1.00
C2234  C     0.79250   0.78780   0.45355   0.00000  Uiso   1.00
O2235  O     0.95750   0.78780   0.45355   0.00000  Uiso   1.00
C2236  C     0.83021   0.88236   0.36597   0.00000  Uiso   1.00
C2237  C     0.91750   0.91280   0.32855   0.00000  Uiso   1.00
O2238  O     0.83250   0.91280   0.32855   0.00000  Uiso   1.00
C2239  C     0.79479   0.86764   0.49097   0.00000  Uiso   1.00
C2240  C     0.95750   0.83720   0.45355   0.00000  Uiso   1.00
O2241  O     0.79250   0.83720   0.45355   0.00000  Uiso   1.00
C2242  C     0.91979   0.99264   0.36597   0.00000  Uiso   1.00
C2243  C     0.83250   0.96220   0.32855   0.00000  Uiso   1.00
O2244  O     0.91750   0.96220   0.32855   0.00000  Uiso   1.00
C2245  C     0.79479   0.88236   0.25903   0.00000  Uiso   1.00
C2246  C     0.95750   0.91280   0.29645   0.00000  Uiso   1.00
O2247  O     0.79250   0.91280   0.29645   0.00000  Uiso   1.00
C2248  C     0.91979   0.75736   0.38403   0.00000  Uiso   1.00
C2249  C     0.83250   0.78780   0.42145   0.00000  Uiso   1.00
O2250  O     0.91750   0.78780   0.42145   0.00000  Uiso   1.00
C2251  C     0.95521   0.99264   0.25903   0.00000  Uiso   1.00
C2252  C     0.79250   0.96220   0.29645   0.00000  Uiso   1.00
O2253  O     0.95750   0.96220   0.29645   0.00000  Uiso   1.00
C2254  C     0.83021   0.86764   0.38403   0.00000  Uiso   1.00
C2255  C     0.91750   0.83720   0.42145   0.00000  Uiso   1.00
O2256  O     0.83250   0.83720   0.42145   0.00000  Uiso   1.00
C2257  C     0.79479   0.99264   0.25903   0.00000  Uiso   1.00
C2258  C     0.95750   0.96220   0.29645   0.00000  Uiso   1.00
O2259  O     0.79250   0.96220   0.29645   0.00000  Uiso   1.00
C2260  C     0.91979   0.86764   0.38403   0.00000  Uiso   1.00
C2261  C     0.83250   0.83720   0.42145   0.00000  Uiso   1.00
O2262  O     0.91750   0.83720   0.42145   0.00000  Uiso   1.00
C2263  C     0.95521   0.88236   0.25903   0.00000  Uiso   1.00
C2264  C     0.79250   0.91280   0.29645   0.00000  Uiso   1.00
O2265  O     0.95750   0.91280   0.29645   0.00000  Uiso   1.00
C2266  C     0.83021   0.75736   0.38403   0.00000  Uiso   1.00
C2267  C     0.91750   0.78780   0.42145   0.00000  Uiso   1.00
O2268  O     0.83250   0.78780   0.42145   0.00000  Uiso   1.00
C2269  C     0.95521   0.86764   0.49097   0.00000  Uiso   1.00
C2270  C     0.79250   0.83720   0.45355   0.00000  Uiso   1.00
O2271  O     0.95750   0.83720   0.45355   0.00000  Uiso   1.00
C2272  C     0.83021   0.99264   0.36597   0.00000  Uiso   1.00
C2273  C     0.91750   0.96220   0.32855   0.00000  Uiso   1.00
O2274  O     0.83250   0.96220   0.32855   0.00000  Uiso   1.00
C2275  C     0.79479   0.75736   0.49097   0.00000  Uiso   1.00
C2276  C     0.95750   0.78780   0.45355   0.00000  Uiso   1.00
O2277  O     0.79250   0.78780   0.45355   0.00000  Uiso   1.00
C2278  C     0.91979   0.88236   0.36597   0.00000  Uiso   1.00
C2279  C     0.83250   0.91280   0.32855   0.00000  Uiso   1.00
O2280  O     0.91750   0.91280   0.32855   0.00000  Uiso   1.00
Al2281 Al    0.81250   0.81250   0.43750   0.00000  Uiso   1.00
Al2282 Al    0.93750   0.81250   0.43750   0.00000  Uiso   1.00
Al2283 Al    0.93750   0.93750   0.31250   0.00000  Uiso   1.00
Al2284 Al    0.81250   0.93750   0.31250   0.00000  Uiso   1.00
O2285  O     0.75000   0.81250   0.41825   0.00000  Uiso   1.00
O2286  O     0.87500   0.93750   0.29325   0.00000  Uiso   1.00
O2287  O     0.75000   0.93750   0.33176   0.00000  Uiso   1.00
O2288  O     0.87500   0.81250   0.45676   0.00000  Uiso   1.00
C2289  C     0.75000   0.76472   0.48192   0.00000  Uiso   1.00
C2290  C     0.75000   0.78082   0.46212   0.00000  Uiso   1.00
C2291  C     0.87500   0.88972   0.35693   0.00000  Uiso   1.00
C2292  C     0.87500   0.90582   0.33712   0.00000  Uiso   1.00
C2293  C     0.75000   0.86028   0.48192   0.00000  Uiso   1.00
C2294  C     0.75000   0.84418   0.46212   0.00000  Uiso   1.00
C2295  C     0.87500   0.98528   0.35693   0.00000  Uiso   1.00
C2296  C     0.87500   0.96917   0.33712   0.00000  Uiso   1.00
C2297  C     0.75000   0.88972   0.26808   0.00000  Uiso   1.00
C2298  C     0.75000   0.90582   0.28788   0.00000  Uiso   1.00
C2299  C     0.87500   0.76472   0.39308   0.00000  Uiso   1.00
C2300  C     0.87500   0.78082   0.41287   0.00000  Uiso   1.00
C2301  C     0.75000   0.98528   0.26808   0.00000  Uiso   1.00
C2302  C     0.75000   0.96917   0.28788   0.00000  Uiso   1.00
C2303  C     0.87500   0.86028   0.39308   0.00000  Uiso   1.00
C2304  C     0.87500   0.84418   0.41287   0.00000  Uiso   1.00
C2305  C     0.20521   0.00736   0.74097   0.00000  Uiso   1.00
C2306  C     0.04250   0.03780   0.70355   0.00000  Uiso   1.00
O2307  O     0.20750   0.03780   0.70355   0.00000  Uiso   1.00
C2308  C     0.08021   0.13236   0.61597   0.00000  Uiso   1.00
C2309  C     0.16750   0.16280   0.57855   0.00000  Uiso   1.00
O2310  O     0.08250   0.16280   0.57855   0.00000  Uiso   1.00
C2311  C     0.04479   0.11764   0.74097   0.00000  Uiso   1.00
C2312  C     0.20750   0.08720   0.70355   0.00000  Uiso   1.00
O2313  O     0.04250   0.08720   0.70355   0.00000  Uiso   1.00
C2314  C     0.16979   0.24264   0.61597   0.00000  Uiso   1.00
C2315  C     0.08250   0.21220   0.57855   0.00000  Uiso   1.00
O2316  O     0.16750   0.21220   0.57855   0.00000  Uiso   1.00
C2317  C     0.04479   0.13236   0.50903   0.00000  Uiso   1.00
C2318  C     0.20750   0.16280   0.54645   0.00000  Uiso   1.00
O2319  O     0.04250   0.16280   0.54645   0.00000  Uiso   1.00
C2320  C     0.16979   0.00736   0.63403   0.00000  Uiso   1.00
C2321  C     0.08250   0.03780   0.67145   0.00000  Uiso   1.00
O2322  O     0.16750   0.03780   0.67145   0.00000  Uiso   1.00
C2323  C     0.20521   0.24264   0.50903   0.00000  Uiso   1.00
C2324  C     0.04250   0.21220   0.54645   0.00000  Uiso   1.00
O2325  O     0.20750   0.21220   0.54645   0.00000  Uiso   1.00
C2326  C     0.08021   0.11764   0.63403   0.00000  Uiso   1.00
C2327  C     0.16750   0.08720   0.67145   0.00000  Uiso   1.00
O2328  O     0.08250   0.08720   0.67145   0.00000  Uiso   1.00
C2329  C     0.04479   0.24264   0.50903   0.00000  Uiso   1.00
C2330  C     0.20750   0.21220   0.54645   0.00000  Uiso   1.00
O2331  O     0.04250   0.21220   0.54645   0.00000  Uiso   1.00
C2332  C     0.16979   0.11764   0.63403   0.00000  Uiso   1.00
C2333  C     0.08250   0.08720   0.67145   0.00000  Uiso   1.00
O2334  O     0.16750   0.08720   0.67145   0.00000  Uiso   1.00
C2335  C     0.20521   0.13236   0.50903   0.00000  Uiso   1.00
C2336  C     0.04250   0.16280   0.54645   0.00000  Uiso   1.00
O2337  O     0.20750   0.16280   0.54645   0.00000  Uiso   1.00
C2338  C     0.08021   0.00736   0.63403   0.00000  Uiso   1.00
C2339  C     0.16750   0.03780   0.67145   0.00000  Uiso   1.00
O2340  O     0.08250   0.03780   0.67145   0.00000  Uiso   1.00
C2341  C     0.20521   0.11764   0.74097   0.00000  Uiso   1.00
C2342  C     0.04250   0.08720   0.70355   0.00000  Uiso   1.00
O2343  O     0.20750   0.08720   0.70355   0.00000  Uiso   1.00
C2344  C     0.08021   0.24264   0.61597   0.00000  Uiso   1.00
C2345  C     0.16750   0.21220   0.57855   0.00000  Uiso   1.00
O2346  O     0.08250   0.21220   0.57855   0.00000  Uiso   1.00
C2347  C     0.04479   0.00736   0.74097   0.00000  Uiso   1.00
C2348  C     0.20750   0.03780   0.70355   0.00000  Uiso   1.00
O2349  O     0.04250   0.03780   0.70355   0.00000  Uiso   1.00
C2350  C     0.16979   0.13236   0.61597   0.00000  Uiso   1.00
C2351  C     0.08250   0.16280   0.57855   0.00000  Uiso   1.00
O2352  O     0.16750   0.16280   0.57855   0.00000  Uiso   1.00
Al2353 Al    0.06250   0.06250   0.68750   0.00000  Uiso   1.00
Al2354 Al    0.18750   0.06250   0.68750   0.00000  Uiso   1.00
Al2355 Al    0.18750   0.18750   0.56250   0.00000  Uiso   1.00
Al2356 Al    0.06250   0.18750   0.56250   0.00000  Uiso   1.00
O2357  O     0.00000   0.06250   0.66824   0.00000  Uiso   1.00
O2358  O     0.12500   0.18750   0.54325   0.00000  Uiso   1.00
O2359  O     0.00000   0.18750   0.58176   0.00000  Uiso   1.00
O2360  O     0.12500   0.06250   0.70676   0.00000  Uiso   1.00
C2361  C     0.00000   0.01472   0.73192   0.00000  Uiso   1.00
C2362  C     0.00000   0.03082   0.71212   0.00000  Uiso   1.00
C2363  C     0.12500   0.13972   0.60693   0.00000  Uiso   1.00
C2364  C     0.12500   0.15582   0.58712   0.00000  Uiso   1.00
C2365  C     0.00000   0.11028   0.73192   0.00000  Uiso   1.00
C2366  C     0.00000   0.09418   0.71212   0.00000  Uiso   1.00
C2367  C     0.12500   0.23528   0.60693   0.00000  Uiso   1.00
C2368  C     0.12500   0.21917   0.58712   0.00000  Uiso   1.00
C2369  C     0.00000   0.13972   0.51808   0.00000  Uiso   1.00
C2370  C     0.00000   0.15582   0.53788   0.00000  Uiso   1.00
C2371  C     0.12500   0.01472   0.64308   0.00000  Uiso   1.00
C2372  C     0.12500   0.03082   0.66287   0.00000  Uiso   1.00
C2373  C     0.00000   0.23528   0.51808   0.00000  Uiso   1.00
C2374  C     0.00000   0.21917   0.53788   0.00000  Uiso   1.00
C2375  C     0.12500   0.11028   0.64308   0.00000  Uiso   1.00
C2376  C     0.12500   0.09418   0.66287   0.00000  Uiso   1.00
C2377  C     0.45521   0.00736   0.74097   0.00000  Uiso   1.00
C2378  C     0.29250   0.03780   0.70355   0.00000  Uiso   1.00
O2379  O     0.45750   0.03780   0.70355   0.00000  Uiso   1.00
C2380  C     0.33021   0.13236   0.61597   0.00000  Uiso   1.00
C2381  C     0.41750   0.16280   0.57855   0.00000  Uiso   1.00
O2382  O     0.33250   0.16280   0.57855   0.00000  Uiso   1.00
C2383  C     0.29479   0.11764   0.74097   0.00000  Uiso   1.00
C2384  C     0.45750   0.08720   0.70355   0.00000  Uiso   1.00
O2385  O     0.29250   0.08720   0.70355   0.00000  Uiso   1.00
C2386  C     0.41979   0.24264   0.61597   0.00000  Uiso   1.00
C2387  C     0.33250   0.21220   0.57855   0.00000  Uiso   1.00
O2388  O     0.41750   0.21220   0.57855   0.00000  Uiso   1.00
C2389  C     0.29479   0.13236   0.50903   0.00000  Uiso   1.00
C2390  C     0.45750   0.16280   0.54645   0.00000  Uiso   1.00
O2391  O     0.29250   0.16280   0.54645   0.00000  Uiso   1.00
C2392  C     0.41979   0.00736   0.63403   0.00000  Uiso   1.00
C2393  C     0.33250   0.03780   0.67145   0.00000  Uiso   1.00
O2394  O     0.41750   0.03780   0.67145   0.00000  Uiso   1.00
C2395  C     0.45521   0.24264   0.50903   0.00000  Uiso   1.00
C2396  C     0.29250   0.21220   0.54645   0.00000  Uiso   1.00
O2397  O     0.45750   0.21220   0.54645   0.00000  Uiso   1.00
C2398  C     0.33021   0.11764   0.63403   0.00000  Uiso   1.00
C2399  C     0.41750   0.08720   0.67145   0.00000  Uiso   1.00
O2400  O     0.33250   0.08720   0.67145   0.00000  Uiso   1.00
C2401  C     0.29479   0.24264   0.50903   0.00000  Uiso   1.00
C2402  C     0.45750   0.21220   0.54645   0.00000  Uiso   1.00
O2403  O     0.29250   0.21220   0.54645   0.00000  Uiso   1.00
C2404  C     0.41979   0.11764   0.63403   0.00000  Uiso   1.00
C2405  C     0.33250   0.08720   0.67145   0.00000  Uiso   1.00
O2406  O     0.41750   0.08720   0.67145   0.00000  Uiso   1.00
C2407  C     0.45521   0.13236   0.50903   0.00000  Uiso   1.00
C2408  C     0.29250   0.16280   0.54645   0.00000  Uiso   1.00
O2409  O     0.45750   0.16280   0.54645   0.00000  Uiso   1.00
C2410  C     0.33021   0.00736   0.63403   0.00000  Uiso   1.00
C2411  C     0.41750   0.03780   0.67145   0.00000  Uiso   1.00
O2412  O     0.33250   0.03780   0.67145   0.00000  Uiso   1.00
C2413  C     0.45521   0.11764   0.74097   0.00000  Uiso   1.00
C2414  C     0.29250   0.08720   0.70355   0.00000  Uiso   1.00
O2415  O     0.45750   0.08720   0.70355   0.00000  Uiso   1.00
C2416  C     0.33021   0.24264   0.61597   0.00000  Uiso   1.00
C2417  C     0.41750   0.21220   0.57855   0.00000  Uiso   1.00
O2418  O     0.33250   0.21220   0.57855   0.00000  Uiso   1.00
C2419  C     0.29479   0.00736   0.74097   0.00000  Uiso   1.00
C2420  C     0.45750   0.03780   0.70355   0.00000  Uiso   1.00
O2421  O     0.29250   0.03780   0.70355   0.00000  Uiso   1.00
C2422  C     0.41979   0.13236   0.61597   0.00000  Uiso   1.00
C2423  C     0.33250   0.16280   0.57855   0.00000  Uiso   1.00
O2424  O     0.41750   0.16280   0.57855   0.00000  Uiso   1.00
Al2425 Al    0.31250   0.06250   0.68750   0.00000  Uiso   1.00
Al2426 Al    0.43750   0.06250   0.68750   0.00000  Uiso   1.00
Al2427 Al    0.43750   0.18750   0.56250   0.00000  Uiso   1.00
Al2428 Al    0.31250   0.18750   0.56250   0.00000  Uiso   1.00
O2429  O     0.25000   0.06250   0.66824   0.00000  Uiso   1.00
O2430  O     0.37500   0.18750   0.54325   0.00000  Uiso   1.00
O2431  O     0.25000   0.18750   0.58176   0.00000  Uiso   1.00
O2432  O     0.37500   0.06250   0.70676   0.00000  Uiso   1.00
C2433  C     0.25000   0.01472   0.73192   0.00000  Uiso   1.00
C2434  C     0.25000   0.03082   0.71212   0.00000  Uiso   1.00
C2435  C     0.37500   0.13972   0.60693   0.00000  Uiso   1.00
C2436  C     0.37500   0.15582   0.58712   0.00000  Uiso   1.00
C2437  C     0.25000   0.11028   0.73192   0.00000  Uiso   1.00
C2438  C     0.25000   0.09418   0.71212   0.00000  Uiso   1.00
C2439  C     0.37500   0.23528   0.60693   0.00000  Uiso   1.00
C2440  C     0.37500   0.21917   0.58712   0.00000  Uiso   1.00
C2441  C     0.25000   0.13972   0.51808   0.00000  Uiso   1.00
C2442  C     0.25000   0.15582   0.53788   0.00000  Uiso   1.00
C2443  C     0.37500   0.01472   0.64308   0.00000  Uiso   1.00
C2444  C     0.37500   0.03082   0.66287   0.00000  Uiso   1.00
C2445  C     0.25000   0.23528   0.51808   0.00000  Uiso   1.00
C2446  C     0.25000   0.21917   0.53788   0.00000  Uiso   1.00
C2447  C     0.37500   0.11028   0.64308   0.00000  Uiso   1.00
C2448  C     0.37500   0.09418   0.66287   0.00000  Uiso   1.00
C2449  C     0.70521   0.00736   0.74097   0.00000  Uiso   1.00
C2450  C     0.54250   0.03780   0.70355   0.00000  Uiso   1.00
O2451  O     0.70750   0.03780   0.70355   0.00000  Uiso   1.00
C2452  C     0.58021   0.13236   0.61597   0.00000  Uiso   1.00
C2453  C     0.66750   0.16280   0.57855   0.00000  Uiso   1.00
O2454  O     0.58250   0.16280   0.57855   0.00000  Uiso   1.00
C2455  C     0.54479   0.11764   0.74097   0.00000  Uiso   1.00
C2456  C     0.70750   0.08720   0.70355   0.00000  Uiso   1.00
O2457  O     0.54250   0.08720   0.70355   0.00000  Uiso   1.00
C2458  C     0.66979   0.24264   0.61597   0.00000  Uiso   1.00
C2459  C     0.58250   0.21220   0.57855   0.00000  Uiso   1.00
O2460  O     0.66750   0.21220   0.57855   0.00000  Uiso   1.00
C2461  C     0.54479   0.13236   0.50903   0.00000  Uiso   1.00
C2462  C     0.70750   0.16280   0.54645   0.00000  Uiso   1.00
O2463  O     0.54250   0.16280   0.54645   0.00000  Uiso   1.00
C2464  C     0.66979   0.00736   0.63403   0.00000  Uiso   1.00
C2465  C     0.58250   0.03780   0.67145   0.00000  Uiso   1.00
O2466  O     0.66750   0.03780   0.67145   0.00000  Uiso   1.00
C2467  C     0.70521   0.24264   0.50903   0.00000  Uiso   1.00
C2468  C     0.54250   0.21220   0.54645   0.00000  Uiso   1.00
O2469  O     0.70750   0.21220   0.54645   0.00000  Uiso   1.00
C2470  C     0.58021   0.11764   0.63403   0.00000  Uiso   1.00
C2471  C     0.66750   0.08720   0.67145   0.00000  Uiso   1.00
O2472  O     0.58250   0.08720   0.67145   0.00000  Uiso   1.00
C2473  C     0.54479   0.24264   0.50903   0.00000  Uiso   1.00
C2474  C     0.70750   0.21220   0.54645   0.00000  Uiso   1.00
O2475  O     0.54250   0.21220   0.54645   0.00000  Uiso   1.00
C2476  C     0.66979   0.11764   0.63403   0.00000  Uiso   1.00
C2477  C     0.58250   0.08720   0.67145   0.00000  Uiso   1.00
O2478  O     0.66750   0.08720   0.67145   0.00000  Uiso   1.00
C2479  C     0.70521   0.13236   0.50903   0.00000  Uiso   1.00
C2480  C     0.54250   0.16280   0.54645   0.00000  Uiso   1.00
O2481  O     0.70750   0.16280   0.54645   0.00000  Uiso   1.00
C2482  C     0.58021   0.00736   0.63403   0.00000  Uiso   1.00
C2483  C     0.66750   0.03780   0.67145   0.00000  Uiso   1.00
O2484  O     0.58250   0.03780   0.67145   0.00000  Uiso   1.00
C2485  C     0.70521   0.11764   0.74097   0.00000  Uiso   1.00
C2486  C     0.54250   0.08720   0.70355   0.00000  Uiso   1.00
O2487  O     0.70750   0.08720   0.70355   0.00000  Uiso   1.00
C2488  C     0.58021   0.24264   0.61597   0.00000  Uiso   1.00
C2489  C     0.66750   0.21220   0.57855   0.00000  Uiso   1.00
O2490  O     0.58250   0.21220   0.57855   0.00000  Uiso   1.00
C2491  C     0.54479   0.00736   0.74097   0.00000  Uiso   1.00
C2492  C     0.70750   0.03780   0.70355   0.00000  Uiso   1.00
O2493  O     0.54250   0.03780   0.70355   0.00000  Uiso   1.00
C2494  C     0.66979   0.13236   0.61597   0.00000  Uiso   1.00
C2495  C     0.58250   0.16280   0.57855   0.00000  Uiso   1.00
O2496  O     0.66750   0.16280   0.57855   0.00000  Uiso   1.00
Al2497 Al    0.56250   0.06250   0.68750   0.00000  Uiso   1.00
Al2498 Al    0.68750   0.06250   0.68750   0.00000  Uiso   1.00
Al2499 Al    0.68750   0.18750   0.56250   0.00000  Uiso   1.00
Al2500 Al    0.56250   0.18750   0.56250   0.00000  Uiso   1.00
O2501  O     0.50000   0.06250   0.66824   0.00000  Uiso   1.00
O2502  O     0.62500   0.18750   0.54325   0.00000  Uiso   1.00
O2503  O     0.50000   0.18750   0.58176   0.00000  Uiso   1.00
O2504  O     0.62500   0.06250   0.70676   0.00000  Uiso   1.00
C2505  C     0.50000   0.01472   0.73192   0.00000  Uiso   1.00
C2506  C     0.50000   0.03082   0.71212   0.00000  Uiso   1.00
C2507  C     0.62500   0.13972   0.60693   0.00000  Uiso   1.00
C2508  C     0.62500   0.15582   0.58712   0.00000  Uiso   1.00
C2509  C     0.50000   0.11028   0.73192   0.00000  Uiso   1.00
C2510  C     0.50000   0.09418   0.71212   0.00000  Uiso   1.00
C2511  C     0.62500   0.23528   0.60693   0.00000  Uiso   1.00
C2512  C     0.62500   0.21917   0.58712   0.00000  Uiso   1.00
C2513  C     0.50000   0.13972   0.51808   0.00000  Uiso   1.00
C2514  C     0.50000   0.15582   0.53788   0.00000  Uiso   1.00
C2515  C     0.62500   0.01472   0.64308   0.00000  Uiso   1.00
C2516  C     0.62500   0.03082   0.66287   0.00000  Uiso   1.00
C2517  C     0.50000   0.23528   0.51808   0.00000  Uiso   1.00
C2518  C     0.50000   0.21917   0.53788   0.00000  Uiso   1.00
C2519  C     0.62500   0.11028   0.64308   0.00000  Uiso   1.00
C2520  C     0.62500   0.09418   0.66287   0.00000  Uiso   1.00
C2521  C     0.95521   0.00736   0.74097   0.00000  Uiso   1.00
C2522  C     0.79250   0.03780   0.70355   0.00000  Uiso   1.00
O2523  O     0.95750   0.03780   0.70355   0.00000  Uiso   1.00
C2524  C     0.83021   0.13236   0.61597   0.00000  Uiso   1.00
C2525  C     0.91750   0.16280   0.57855   0.00000  Uiso   1.00
O2526  O     0.83250   0.16280   0.57855   0.00000  Uiso   1.00
C2527  C     0.79479   0.11764   0.74097   0.00000  Uiso   1.00
C2528  C     0.95750   0.08720   0.70355   0.00000  Uiso   1.00
O2529  O     0.79250   0.08720   0.70355   0.00000  Uiso   1.00
C2530  C     0.91979   0.24264   0.61597   0.00000  Uiso   1.00
C2531  C     0.83250   0.21220   0.57855   0.00000  Uiso   1.00
O2532  O     0.91750   0.21220   0.57855   0.00000  Uiso   1.00
C2533  C     0.79479   0.13236   0.50903   0.00000  Uiso   1.00
C2534  C     0.95750   0.16280   0.54645   0.00000  Uiso   1.00
O2535  O     0.79250   0.16280   0.54645   0.00000  Uiso   1.00
C2536  C     0.91979   0.00736   0.63403   0.00000  Uiso   1.00
C2537  C     0.83250   0.03780   0.67145   0.00000  Uiso   1.00
O2538  O     0.91750   0.03780   0.67145   0.00000  Uiso   1.00
C2539  C     0.95521   0.24264   0.50903   0.00000  Uiso   1.00
C2540  C     0.79250   0.21220   0.54645   0.00000  Uiso   1.00
O2541  O     0.95750   0.21220   0.54645   0.00000  Uiso   1.00
C2542  C     0.83021   0.11764   0.63403   0.00000  Uiso   1.00
C2543  C     0.91750   0.08720   0.67145   0.00000  Uiso   1.00
O2544  O     0.83250   0.08720   0.67145   0.00000  Uiso   1.00
C2545  C     0.79479   0.24264   0.50903   0.00000  Uiso   1.00
C2546  C     0.95750   0.21220   0.54645   0.00000  Uiso   1.00
O2547  O     0.79250   0.21220   0.54645   0.00000  Uiso   1.00
C2548  C     0.91979   0.11764   0.63403   0.00000  Uiso   1.00
C2549  C     0.83250   0.08720   0.67145   0.00000  Uiso   1.00
O2550  O     0.91750   0.08720   0.67145   0.00000  Uiso   1.00
C2551  C     0.95521   0.13236   0.50903   0.00000  Uiso   1.00
C2552  C     0.79250   0.16280   0.54645   0.00000  Uiso   1.00
O2553  O     0.95750   0.16280   0.54645   0.00000  Uiso   1.00
C2554  C     0.83021   0.00736   0.63403   0.00000  Uiso   1.00
C2555  C     0.91750   0.03780   0.67145   0.00000  Uiso   1.00
O2556  O     0.83250   0.03780   0.67145   0.00000  Uiso   1.00
C2557  C     0.95521   0.11764   0.74097   0.00000  Uiso   1.00
C2558  C     0.79250   0.08720   0.70355   0.00000  Uiso   1.00
O2559  O     0.95750   0.08720   0.70355   0.00000  Uiso   1.00
C2560  C     0.83021   0.24264   0.61597   0.00000  Uiso   1.00
C2561  C     0.91750   0.21220   0.57855   0.00000  Uiso   1.00
O2562  O     0.83250   0.21220   0.57855   0.00000  Uiso   1.00
C2563  C     0.79479   0.00736   0.74097   0.00000  Uiso   1.00
C2564  C     0.95750   0.03780   0.70355   0.00000  Uiso   1.00
O2565  O     0.79250   0.03780   0.70355   0.00000  Uiso   1.00
C2566  C     0.91979   0.13236   0.61597   0.00000  Uiso   1.00
C2567  C     0.83250   0.16280   0.57855   0.00000  Uiso   1.00
O2568  O     0.91750   0.16280   0.57855   0.00000  Uiso   1.00
Al2569 Al    0.81250   0.06250   0.68750   0.00000  Uiso   1.00
Al2570 Al    0.93750   0.06250   0.68750   0.00000  Uiso   1.00
Al2571 Al    0.93750   0.18750   0.56250   0.00000  Uiso   1.00
Al2572 Al    0.81250   0.18750   0.56250   0.00000  Uiso   1.00
O2573  O     0.75000   0.06250   0.66824   0.00000  Uiso   1.00
O2574  O     0.87500   0.18750   0.54325   0.00000  Uiso   1.00
O2575  O     0.75000   0.18750   0.58176   0.00000  Uiso   1.00
O2576  O     0.87500   0.06250   0.70676   0.00000  Uiso   1.00
C2577  C     0.75000   0.01472   0.73192   0.00000  Uiso   1.00
C2578  C     0.75000   0.03082   0.71212   0.00000  Uiso   1.00
C2579  C     0.87500   0.13972   0.60693   0.00000  Uiso   1.00
C2580  C     0.87500   0.15582   0.58712   0.00000  Uiso   1.00
C2581  C     0.75000   0.11028   0.73192   0.00000  Uiso   1.00
C2582  C     0.75000   0.09418   0.71212   0.00000  Uiso   1.00
C2583  C     0.87500   0.23528   0.60693   0.00000  Uiso   1.00
C2584  C     0.87500   0.21917   0.58712   0.00000  Uiso   1.00
C2585  C     0.75000   0.13972   0.51808   0.00000  Uiso   1.00
C2586  C     0.75000   0.15582   0.53788   0.00000  Uiso   1.00
C2587  C     0.87500   0.01472   0.64308   0.00000  Uiso   1.00
C2588  C     0.87500   0.03082   0.66287   0.00000  Uiso   1.00
C2589  C     0.75000   0.23528   0.51808   0.00000  Uiso   1.00
C2590  C     0.75000   0.21917   0.53788   0.00000  Uiso   1.00
C2591  C     0.87500   0.11028   0.64308   0.00000  Uiso   1.00
C2592  C     0.87500   0.09418   0.66287   0.00000  Uiso   1.00
C2593  C     0.20521   0.25736   0.74097   0.00000  Uiso   1.00
C2594  C     0.04250   0.28780   0.70355   0.00000  Uiso   1.00
O2595  O     0.20750   0.28780   0.70355   0.00000  Uiso   1.00
C2596  C     0.08021   0.38236   0.61597   0.00000  Uiso   1.00
C2597  C     0.16750   0.41280   0.57855   0.00000  Uiso   1.00
O2598  O     0.08250   0.41280   0.57855   0.00000  Uiso   1.00
C2599  C     0.04479   0.36764   0.74097   0.00000  Uiso   1.00
C2600  C     0.20750   0.33720   0.70355   0.00000  Uiso   1.00
O2601  O     0.04250   0.33720   0.70355   0.00000  Uiso   1.00
C2602  C     0.16979   0.49264   0.61597   0.00000  Uiso   1.00
C2603  C     0.08250   0.46220   0.57855   0.00000  Uiso   1.00
O2604  O     0.16750   0.46220   0.57855   0.00000  Uiso   1.00
C2605  C     0.04479   0.38236   0.50903   0.00000  Uiso   1.00
C2606  C     0.20750   0.41280   0.54645   0.00000  Uiso   1.00
O2607  O     0.04250   0.41280   0.54645   0.00000  Uiso   1.00
C2608  C     0.16979   0.25736   0.63403   0.00000  Uiso   1.00
C2609  C     0.08250   0.28780   0.67145   0.00000  Uiso   1.00
O2610  O     0.16750   0.28780   0.67145   0.00000  Uiso   1.00
C2611  C     0.20521   0.49264   0.50903   0.00000  Uiso   1.00
C2612  C     0.04250   0.46220   0.54645   0.00000  Uiso   1.00
O2613  O     0.20750   0.46220   0.54645   0.00000  Uiso   1.00
C2614  C     0.08021   0.36764   0.63403   0.00000  Uiso   1.00
C2615  C     0.16750   0.33720   0.67145   0.00000  Uiso   1.00
O2616  O     0.08250   0.33720   0.67145   0.00000  Uiso   1.00
C2617  C     0.04479   0.49264   0.50903   0.00000  Uiso   1.00
C2618  C     0.20750   0.46220   0.54645   0.00000  Uiso   1.00
O2619  O     0.04250   0.46220   0.54645   0.00000  Uiso   1.00
C2620  C     0.16979   0.36764   0.63403   0.00000  Uiso   1.00
C2621  C     0.08250   0.33720   0.67145   0.00000  Uiso   1.00
O2622  O     0.16750   0.33720   0.67145   0.00000  Uiso   1.00
C2623  C     0.20521   0.38236   0.50903   0.00000  Uiso   1.00
C2624  C     0.04250   0.41280   0.54645   0.00000  Uiso   1.00
O2625  O     0.20750   0.41280   0.54645   0.00000  Uiso   1.00
C2626  C     0.08021   0.25736   0.63403   0.00000  Uiso   1.00
C2627  C     0.16750   0.28780   0.67145   0.00000  Uiso   1.00
O2628  O     0.08250   0.28780   0.67145   0.00000  Uiso   1.00
C2629  C     0.20521   0.36764   0.74097   0.00000  Uiso   1.00
C2630  C     0.04250   0.33720   0.70355   0.00000  Uiso   1.00
O2631  O     0.20750   0.33720   0.70355   0.00000  Uiso   1.00
C2632  C     0.08021   0.49264   0.61597   0.00000  Uiso   1.00
C2633  C     0.16750   0.46220   0.57855   0.00000  Uiso   1.00
O2634  O     0.08250   0.46220   0.57855   0.00000  Uiso   1.00
C2635  C     0.04479   0.25736   0.74097   0.00000  Uiso   1.00
C2636  C     0.20750   0.28780   0.70355   0.00000  Uiso   1.00
O2637  O     0.04250   0.28780   0.70355   0.00000  Uiso   1.00
C2638  C     0.16979   0.38236   0.61597   0.00000  Uiso   1.00
C2639  C     0.08250   0.41280   0.57855   0.00000  Uiso   1.00
O2640  O     0.16750   0.41280   0.57855   0.00000  Uiso   1.00
Al2641 Al    0.06250   0.31250   0.68750   0.00000  Uiso   1.00
Al2642 Al    0.18750   0.31250   0.68750   0.00000  Uiso   1.00
Al2643 Al    0.18750   0.43750   0.56250   0.00000  Uiso   1.00
Al2644 Al    0.06250   0.43750   0.56250   0.00000  Uiso   1.00
O2645  O     0.00000   0.31250   0.66824   0.00000  Uiso   1.00
O2646  O     0.12500   0.43750   0.54325   0.00000  Uiso   1.00
O2647  O     0.00000   0.43750   0.58176   0.00000  Uiso   1.00
O2648  O     0.12500   0.31250   0.70676   0.00000  Uiso   1.00
C2649  C     0.00000   0.26472   0.73192   0.00000  Uiso   1.00
C2650  C     0.00000   0.28082   0.71212   0.00000  Uiso   1.00
C2651  C     0.12500   0.38972   0.60693   0.00000  Uiso   1.00
C2652  C     0.12500   0.40582   0.58712   0.00000  Uiso   1.00
C2653  C     0.00000   0.36028   0.73192   0.00000  Uiso   1.00
C2654  C     0.00000   0.34417   0.71212   0.00000  Uiso   1.00
C2655  C     0.12500   0.48528   0.60693   0.00000  Uiso   1.00
C2656  C     0.12500   0.46917   0.58712   0.00000  Uiso   1.00
C2657  C     0.00000   0.38972   0.51808   0.00000  Uiso   1.00
C2658  C     0.00000   0.40582   0.53788   0.00000  Uiso   1.00
C2659  C     0.12500   0.26472   0.64308   0.00000  Uiso   1.00
C2660  C     0.12500   0.28082   0.66287   0.00000  Uiso   1.00
C2661  C     0.00000   0.48528   0.51808   0.00000  Uiso   1.00
C2662  C     0.00000   0.46917   0.53788   0.00000  Uiso   1.00
C2663  C     0.12500   0.36028   0.64308   0.00000  Uiso   1.00
C2664  C     0.12500   0.34417   0.66287   0.00000  Uiso   1.00
C2665  C     0.45521   0.25736   0.74097   0.00000  Uiso   1.00
C2666  C     0.29250   0.28780   0.70355   0.00000  Uiso   1.00
O2667  O     0.45750   0.28780   0.70355   0.00000  Uiso   1.00
C2668  C     0.33021   0.38236   0.61597   0.00000  Uiso   1.00
C2669  C     0.41750   0.41280   0.57855   0.00000  Uiso   1.00
O2670  O     0.33250   0.41280   0.57855   0.00000  Uiso   1.00
C2671  C     0.29479   0.36764   0.74097   0.00000  Uiso   1.00
C2672  C     0.45750   0.33720   0.70355   0.00000  Uiso   1.00
O2673  O     0.29250   0.33720   0.70355   0.00000  Uiso   1.00
C2674  C     0.41979   0.49264   0.61597   0.00000  Uiso   1.00
C2675  C     0.33250   0.46220   0.57855   0.00000  Uiso   1.00
O2676  O     0.41750   0.46220   0.57855   0.00000  Uiso   1.00
C2677  C     0.29479   0.38236   0.50903   0.00000  Uiso   1.00
C2678  C     0.45750   0.41280   0.54645   0.00000  Uiso   1.00
O2679  O     0.29250   0.41280   0.54645   0.00000  Uiso   1.00
C2680  C     0.41979   0.25736   0.63403   0.00000  Uiso   1.00
C2681  C     0.33250   0.28780   0.67145   0.00000  Uiso   1.00
O2682  O     0.41750   0.28780   0.67145   0.00000  Uiso   1.00
C2683  C     0.45521   0.49264   0.50903   0.00000  Uiso   1.00
C2684  C     0.29250   0.46220   0.54645   0.00000  Uiso   1.00
O2685  O     0.45750   0.46220   0.54645   0.00000  Uiso   1.00
C2686  C     0.33021   0.36764   0.63403   0.00000  Uiso   1.00
C2687  C     0.41750   0.33720   0.67145   0.00000  Uiso   1.00
O2688  O     0.33250   0.33720   0.67145   0.00000  Uiso   1.00
C2689  C     0.29479   0.49264   0.50903   0.00000  Uiso   1.00
C2690  C     0.45750   0.46220   0.54645   0.00000  Uiso   1.00
O2691  O     0.29250   0.46220   0.54645   0.00000  Uiso   1.00
C2692  C     0.41979   0.36764   0.63403   0.00000  Uiso   1.00
C2693  C     0.33250   0.33720   0.67145   0.00000  Uiso   1.00
O2694  O     0.41750   0.33720   0.67145   0.00000  Uiso   1.00
C2695  C     0.45521   0.38236   0.50903   0.00000  Uiso   1.00
C2696  C     0.29250   0.41280   0.54645   0.00000  Uiso   1.00
O2697  O     0.45750   0.41280   0.54645   0.00000  Uiso   1.00
C2698  C     0.33021   0.25736   0.63403   0.00000  Uiso   1.00
C2699  C     0.41750   0.28780   0.67145   0.00000  Uiso   1.00
O2700  O     0.33250   0.28780   0.67145   0.00000  Uiso   1.00
C2701  C     0.45521   0.36764   0.74097   0.00000  Uiso   1.00
C2702  C     0.29250   0.33720   0.70355   0.00000  Uiso   1.00
O2703  O     0.45750   0.33720   0.70355   0.00000  Uiso   1.00
C2704  C     0.33021   0.49264   0.61597   0.00000  Uiso   1.00
C2705  C     0.41750   0.46220   0.57855   0.00000  Uiso   1.00
O2706  O     0.33250   0.46220   0.57855   0.00000  Uiso   1.00
C2707  C     0.29479   0.25736   0.74097   0.00000  Uiso   1.00
C2708  C     0.45750   0.28780   0.70355   0.00000  Uiso   1.00
O2709  O     0.29250   0.28780   0.70355   0.00000  Uiso   1.00
C2710  C     0.41979   0.38236   0.61597   0.00000  Uiso   1.00
C2711  C     0.33250   0.41280   0.57855   0.00000  Uiso   1.00
O2712  O     0.41750   0.41280   0.57855   0.00000  Uiso   1.00
Al2713 Al    0.31250   0.31250   0.68750   0.00000  Uiso   1.00
Al2714 Al    0.43750   0.31250   0.68750   0.00000  Uiso   1.00
Al2715 Al    0.43750   0.43750   0.56250   0.00000  Uiso   1.00
Al2716 Al    0.31250   0.43750   0.56250   0.00000  Uiso   1.00
O2717  O     0.25000   0.31250   0.66824   0.00000  Uiso   1.00
O2718  O     0.37500   0.43750   0.54325   0.00000  Uiso   1.00
O2719  O     0.25000   0.43750   0.58176   0.00000  Uiso   1.00
O2720  O     0.37500   0.31250   0.70676   0.00000  Uiso   1.00
C2721  C     0.25000   0.26472   0.73192   0.00000  Uiso   1.00
C2722  C     0.25000   0.28082   0.71212   0.00000  Uiso   1.00
C2723  C     0.37500   0.38972   0.60693   0.00000  Uiso   1.00
C2724  C     0.37500   0.40582   0.58712   0.00000  Uiso   1.00
C2725  C     0.25000   0.36028   0.73192   0.00000  Uiso   1.00
C2726  C     0.25000   0.34417   0.71212   0.00000  Uiso   1.00
C2727  C     0.37500   0.48528   0.60693   0.00000  Uiso   1.00
C2728  C     0.37500   0.46917   0.58712   0.00000  Uiso   1.00
C2729  C     0.25000   0.38972   0.51808   0.00000  Uiso   1.00
C2730  C     0.25000   0.40582   0.53788   0.00000  Uiso   1.00
C2731  C     0.37500   0.26472   0.64308   0.00000  Uiso   1.00
C2732  C     0.37500   0.28082   0.66287   0.00000  Uiso   1.00
C2733  C     0.25000   0.48528   0.51808   0.00000  Uiso   1.00
C2734  C     0.25000   0.46917   0.53788   0.00000  Uiso   1.00
C2735  C     0.37500   0.36028   0.64308   0.00000  Uiso   1.00
C2736  C     0.37500   0.34417   0.66287   0.00000  Uiso   1.00
C2737  C     0.70521   0.25736   0.74097   0.00000  Uiso   1.00
C2738  C     0.54250   0.28780   0.70355   0.00000  Uiso   1.00
O2739  O     0.70750   0.28780   0.70355   0.00000  Uiso   1.00
C2740  C     0.58021   0.38236   0.61597   0.00000  Uiso   1.00
C2741  C     0.66750   0.41280   0.57855   0.00000  Uiso   1.00
O2742  O     0.58250   0.41280   0.57855   0.00000  Uiso   1.00
C2743  C     0.54479   0.36764   0.74097   0.00000  Uiso   1.00
C2744  C     0.70750   0.33720   0.70355   0.00000  Uiso   1.00
O2745  O     0.54250   0.33720   0.70355   0.00000  Uiso   1.00
C2746  C     0.66979   0.49264   0.61597   0.00000  Uiso   1.00
C2747  C     0.58250   0.46220   0.57855   0.00000  Uiso   1.00
O2748  O     0.66750   0.46220   0.57855   0.00000  Uiso   1.00
C2749  C     0.54479   0.38236   0.50903   0.00000  Uiso   1.00
C2750  C     0.70750   0.41280   0.54645   0.00000  Uiso   1.00
O2751  O     0.54250   0.41280   0.54645   0.00000  Uiso   1.00
C2752  C     0.66979   0.25736   0.63403   0.00000  Uiso   1.00
C2753  C     0.58250   0.28780   0.67145   0.00000  Uiso   1.00
O2754  O     0.66750   0.28780   0.67145   0.00000  Uiso   1.00
C2755  C     0.70521   0.49264   0.50903   0.00000  Uiso   1.00
C2756  C     0.54250   0.46220   0.54645   0.00000  Uiso   1.00
O2757  O     0.70750   0.46220   0.54645   0.00000  Uiso   1.00
C2758  C     0.58021   0.36764   0.63403   0.00000  Uiso   1.00
C2759  C     0.66750   0.33720   0.67145   0.00000  Uiso   1.00
O2760  O     0.58250   0.33720   0.67145   0.00000  Uiso   1.00
C2761  C     0.54479   0.49264   0.50903   0.00000  Uiso   1.00
C2762  C     0.70750   0.46220   0.54645   0.00000  Uiso   1.00
O2763  O     0.54250   0.46220   0.54645   0.00000  Uiso   1.00
C2764  C     0.66979   0.36764   0.63403   0.00000  Uiso   1.00
C2765  C     0.58250   0.33720   0.67145   0.00000  Uiso   1.00
O2766  O     0.66750   0.33720   0.67145   0.00000  Uiso   1.00
C2767  C     0.70521   0.38236   0.50903   0.00000  Uiso   1.00
C2768  C     0.54250   0.41280   0.54645   0.00000  Uiso   1.00
O2769  O     0.70750   0.41280   0.54645   0.00000  Uiso   1.00
C2770  C     0.58021   0.25736   0.63403   0.00000  Uiso   1.00
C2771  C     0.66750   0.28780   0.67145   0.00000  Uiso   1.00
O2772  O     0.58250   0.28780   0.67145   0.00000  Uiso   1.00
C2773  C     0.70521   0.36764   0.74097   0.00000  Uiso   1.00
C2774  C     0.54250   0.33720   0.70355   0.00000  Uiso   1.00
O2775  O     0.70750   0.33720   0.70355   0.00000  Uiso   1.00
C2776  C     0.58021   0.49264   0.61597   0.00000  Uiso   1.00
C2777  C     0.66750   0.46220   0.57855   0.00000  Uiso   1.00
O2778  O     0.58250   0.46220   0.57855   0.00000  Uiso   1.00
C2779  C     0.54479   0.25736   0.74097   0.00000  Uiso   1.00
C2780  C     0.70750   0.28780   0.70355   0.00000  Uiso   1.00
O2781  O     0.54250   0.28780   0.70355   0.00000  Uiso   1.00
C2782  C     0.66979   0.38236   0.61597   0.00000  Uiso   1.00
C2783  C     0.58250   0.41280   0.57855   0.00000  Uiso   1.00
O2784  O     0.66750   0.41280   0.57855   0.00000  Uiso   1.00
Al2785 Al    0.56250   0.31250   0.68750   0.00000  Uiso   1.00
Al2786 Al    0.68750   0.31250   0.68750   0.00000  Uiso   1.00
Al2787 Al    0.68750   0.43750   0.56250   0.00000  Uiso   1.00
Al2788 Al    0.56250   0.43750   0.56250   0.00000  Uiso   1.00
O2789  O     0.50000   0.31250   0.66824   0.00000  Uiso   1.00
O2790  O     0.62500   0.43750   0.54325   0.00000  Uiso   1.00
O2791  O     0.50000   0.43750   0.58176   0.00000  Uiso   1.00
O2792  O     0.62500   0.31250   0.70676   0.00000  Uiso   1.00
C2793  C     0.50000   0.26472   0.73192   0.00000  Uiso   1.00
C2794  C     0.50000   0.28082   0.71212   0.00000  Uiso   1.00
C2795  C     0.62500   0.38972   0.60693   0.00000  Uiso   1.00
C2796  C     0.62500   0.40582   0.58712   0.00000  Uiso   1.00
C2797  C     0.50000   0.36028   0.73192   0.00000  Uiso   1.00
C2798  C     0.50000   0.34417   0.71212   0.00000  Uiso   1.00
C2799  C     0.62500   0.48528   0.60693   0.00000  Uiso   1.00
C2800  C     0.62500   0.46917   0.58712   0.00000  Uiso   1.00
C2801  C     0.50000   0.38972   0.51808   0.00000  Uiso   1.00
C2802  C     0.50000   0.40582   0.53788   0.00000  Uiso   1.00
C2803  C     0.62500   0.26472   0.64308   0.00000  Uiso   1.00
C2804  C     0.62500   0.28082   0.66287   0.00000  Uiso   1.00
C2805  C     0.50000   0.48528   0.51808   0.00000  Uiso   1.00
C2806  C     0.50000   0.46917   0.53788   0.00000  Uiso   1.00
C2807  C     0.62500   0.36028   0.64308   0.00000  Uiso   1.00
C2808  C     0.62500   0.34417   0.66287   0.00000  Uiso   1.00
C2809  C     0.95521   0.25736   0.74097   0.00000  Uiso   1.00
C2810  C     0.79250   0.28780   0.70355   0.00000  Uiso   1.00
O2811  O     0.95750   0.28780   0.70355   0.00000  Uiso   1.00
C2812  C     0.83021   0.38236   0.61597   0.00000  Uiso   1.00
C2813  C     0.91750   0.41280   0.57855   0.00000  Uiso   1.00
O2814  O     0.83250   0.41280   0.57855   0.00000  Uiso   1.00
C2815  C     0.79479   0.36764   0.74097   0.00000  Uiso   1.00
C2816  C     0.95750   0.33720   0.70355   0.00000  Uiso   1.00
O2817  O     0.79250   0.33720   0.70355   0.00000  Uiso   1.00
C2818  C     0.91979   0.49264   0.61597   0.00000  Uiso   1.00
C2819  C     0.83250   0.46220   0.57855   0.00000  Uiso   1.00
O2820  O     0.91750   0.46220   0.57855   0.00000  Uiso   1.00
C2821  C     0.79479   0.38236   0.50903   0.00000  Uiso   1.00
C2822  C     0.95750   0.41280   0.54645   0.00000  Uiso   1.00
O2823  O     0.79250   0.41280   0.54645   0.00000  Uiso   1.00
C2824  C     0.91979   0.25736   0.63403   0.00000  Uiso   1.00
C2825  C     0.83250   0.28780   0.67145   0.00000  Uiso   1.00
O2826  O     0.91750   0.28780   0.67145   0.00000  Uiso   1.00
C2827  C     0.95521   0.49264   0.50903   0.00000  Uiso   1.00
C2828  C     0.79250   0.46220   0.54645   0.00000  Uiso   1.00
O2829  O     0.95750   0.46220   0.54645   0.00000  Uiso   1.00
C2830  C     0.83021   0.36764   0.63403   0.00000  Uiso   1.00
C2831  C     0.91750   0.33720   0.67145   0.00000  Uiso   1.00
O2832  O     0.83250   0.33720   0.67145   0.00000  Uiso   1.00
C2833  C     0.79479   0.49264   0.50903   0.00000  Uiso   1.00
C2834  C     0.95750   0.46220   0.54645   0.00000  Uiso   1.00
O2835  O     0.79250   0.46220   0.54645   0.00000  Uiso   1.00
C2836  C     0.91979   0.36764   0.63403   0.00000  Uiso   1.00
C2837  C     0.83250   0.33720   0.67145   0.00000  Uiso   1.00
O2838  O     0.91750   0.33720   0.67145   0.00000  Uiso   1.00
C2839  C     0.95521   0.38236   0.50903   0.00000  Uiso   1.00
C2840  C     0.79250   0.41280   0.54645   0.00000  Uiso   1.00
O2841  O     0.95750   0.41280   0.54645   0.00000  Uiso   1.00
C2842  C     0.83021   0.25736   0.63403   0.00000  Uiso   1.00
C2843  C     0.91750   0.28780   0.67145   0.00000  Uiso   1.00
O2844  O     0.83250   0.28780   0.67145   0.00000  Uiso   1.00
C2845  C     0.95521   0.36764   0.74097   0.00000  Uiso   1.00
C2846  C     0.79250   0.33720   0.70355   0.00000  Uiso   1.00
O2847  O     0.95750   0.33720   0.70355   0.00000  Uiso   1.00
C2848  C     0.83021   0.49264   0.61597   0.00000  Uiso   1.00
C2849  C     0.91750   0.46220   0.57855   0.00000  Uiso   1.00
O2850  O     0.83250   0.46220   0.57855   0.00000  Uiso   1.00
C2851  C     0.79479   0.25736   0.74097   0.00000  Uiso   1.00
C2852  C     0.95750   0.28780   0.70355   0.00000  Uiso   1.00
O2853  O     0.79250   0.28780   0.70355   0.00000  Uiso   1.00
C2854  C     0.91979   0.38236   0.61597   0.00000  Uiso   1.00
C2855  C     0.83250   0.41280   0.57855   0.00000  Uiso   1.00
O2856  O     0.91750   0.41280   0.57855   0.00000  Uiso   1.00
Al2857 Al    0.81250   0.31250   0.68750   0.00000  Uiso   1.00
Al2858 Al    0.93750   0.31250   0.68750   0.00000  Uiso   1.00
Al2859 Al    0.93750   0.43750   0.56250   0.00000  Uiso   1.00
Al2860 Al    0.81250   0.43750   0.56250   0.00000  Uiso   1.00
O2861  O     0.75000   0.31250   0.66824   0.00000  Uiso   1.00
O2862  O     0.87500   0.43750   0.54325   0.00000  Uiso   1.00
O2863  O     0.75000   0.43750   0.58176   0.00000  Uiso   1.00
O2864  O     0.87500   0.31250   0.70676   0.00000  Uiso   1.00
C2865  C     0.75000   0.26472   0.73192   0.00000  Uiso   1.00
C2866  C     0.75000   0.28082   0.71212   0.00000  Uiso   1.00
C2867  C     0.87500   0.38972   0.60693   0.00000  Uiso   1.00
C2868  C     0.87500   0.40582   0.58712   0.00000  Uiso   1.00
C2869  C     0.75000   0.36028   0.73192   0.00000  Uiso   1.00
C2870  C     0.75000   0.34417   0.71212   0.00000  Uiso   1.00
C2871  C     0.87500   0.48528   0.60693   0.00000  Uiso   1.00
C2872  C     0.87500   0.46917   0.58712   0.00000  Uiso   1.00
C2873  C     0.75000   0.38972   0.51808   0.00000  Uiso   1.00
C2874  C     0.75000   0.40582   0.53788   0.00000  Uiso   1.00
C2875  C     0.87500   0.26472   0.64308   0.00000  Uiso   1.00
C2876  C     0.87500   0.28082   0.66287   0.00000  Uiso   1.00
C2877  C     0.75000   0.48528   0.51808   0.00000  Uiso   1.00
C2878  C     0.75000   0.46917   0.53788   0.00000  Uiso   1.00
C2879  C     0.87500   0.36028   0.64308   0.00000  Uiso   1.00
C2880  C     0.87500   0.34417   0.66287   0.00000  Uiso   1.00
C2881  C     0.20521   0.50736   0.74097   0.00000  Uiso   1.00
C2882  C     0.04250   0.53780   0.70355   0.00000  Uiso   1.00
O2883  O     0.20750   0.53780   0.70355   0.00000  Uiso   1.00
C2884  C     0.08021   0.63236   0.61597   0.00000  Uiso   1.00
C2885  C     0.16750   0.66280   0.57855   0.00000  Uiso   1.00
O2886  O     0.08250   0.66280   0.57855   0.00000  Uiso   1.00
C2887  C     0.04479   0.61764   0.74097   0.00000  Uiso   1.00
C2888  C     0.20750   0.58720   0.70355   0.00000  Uiso   1.00
O2889  O     0.04250   0.58720   0.70355   0.00000  Uiso   1.00
C2890  C     0.16979   0.74264   0.61597   0.00000  Uiso   1.00
C2891  C     0.08250   0.71220   0.57855   0.00000  Uiso   1.00
O2892  O     0.16750   0.71220   0.57855   0.00000  Uiso   1.00
C2893  C     0.04479   0.63236   0.50903   0.00000  Uiso   1.00
C2894  C     0.20750   0.66280   0.54645   0.00000  Uiso   1.00
O2895  O     0.04250   0.66280   0.54645   0.00000  Uiso   1.00
C2896  C     0.16979   0.50736   0.63403   0.00000  Uiso   1.00
C2897  C     0.08250   0.53780   0.67145   0.00000  Uiso   1.00
O2898  O     0.16750   0.53780   0.67145   0.00000  Uiso   1.00
C2899  C     0.20521   0.74264   0.50903   0.00000  Uiso   1.00
C2900  C     0.04250   0.71220   0.54645   0.00000  Uiso   1.00
O2901  O     0.20750   0.71220   0.54645   0.00000  Uiso   1.00
C2902  C     0.08021   0.61764   0.63403   0.00000  Uiso   1.00
C2903  C     0.16750   0.58720   0.67145   0.00000  Uiso   1.00
O2904  O     0.08250   0.58720   0.67145   0.00000  Uiso   1.00
C2905  C     0.04479   0.74264   0.50903   0.00000  Uiso   1.00
C2906  C     0.20750   0.71220   0.54645   0.00000  Uiso   1.00
O2907  O     0.04250   0.71220   0.54645   0.00000  Uiso   1.00
C2908  C     0.16979   0.61764   0.63403   0.00000  Uiso   1.00
C2909  C     0.08250   0.58720   0.67145   0.00000  Uiso   1.00
O2910  O     0.16750   0.58720   0.67145   0.00000  Uiso   1.00
C2911  C     0.20521   0.63236   0.50903   0.00000  Uiso   1.00
C2912  C     0.04250   0.66280   0.54645   0.00000  Uiso   1.00
O2913  O     0.20750   0.66280   0.54645   0.00000  Uiso   1.00
C2914  C     0.08021   0.50736   0.63403   0.00000  Uiso   1.00
C2915  C     0.16750   0.53780   0.67145   0.00000  Uiso   1.00
O2916  O     0.08250   0.53780   0.67145   0.00000  Uiso   1.00
C2917  C     0.20521   0.61764   0.74097   0.00000  Uiso   1.00
C2918  C     0.04250   0.58720   0.70355   0.00000  Uiso   1.00
O2919  O     0.20750   0.58720   0.70355   0.00000  Uiso   1.00
C2920  C     0.08021   0.74264   0.61597   0.00000  Uiso   1.00
C2921  C     0.16750   0.71220   0.57855   0.00000  Uiso   1.00
O2922  O     0.08250   0.71220   0.57855   0.00000  Uiso   1.00
C2923  C     0.04479   0.50736   0.74097   0.00000  Uiso   1.00
C2924  C     0.20750   0.53780   0.70355   0.00000  Uiso   1.00
O2925  O     0.04250   0.53780   0.70355   0.00000  Uiso   1.00
C2926  C     0.16979   0.63236   0.61597   0.00000  Uiso   1.00
C2927  C     0.08250   0.66280   0.57855   0.00000  Uiso   1.00
O2928  O     0.16750   0.66280   0.57855   0.00000  Uiso   1.00
Al2929 Al    0.06250   0.56250   0.68750   0.00000  Uiso   1.00
Al2930 Al    0.18750   0.56250   0.68750   0.00000  Uiso   1.00
Al2931 Al    0.18750   0.68750   0.56250   0.00000  Uiso   1.00
Al2932 Al    0.06250   0.68750   0.56250   0.00000  Uiso   1.00
O2933  O     0.00000   0.56250   0.66824   0.00000  Uiso   1.00
O2934  O     0.12500   0.68750   0.54325   0.00000  Uiso   1.00
O2935  O     0.00000   0.68750   0.58176   0.00000  Uiso   1.00
O2936  O     0.12500   0.56250   0.70676   0.00000  Uiso   1.00
C2937  C     0.00000   0.51472   0.73192   0.00000  Uiso   1.00
C2938  C     0.00000   0.53082   0.71212   0.00000  Uiso   1.00
C2939  C     0.12500   0.63972   0.60693   0.00000  Uiso   1.00
C2940  C     0.12500   0.65582   0.58712   0.00000  Uiso   1.00
C2941  C     0.00000   0.61028   0.73192   0.00000  Uiso   1.00
C2942  C     0.00000   0.59418   0.71212   0.00000  Uiso   1.00
C2943  C     0.12500   0.73528   0.60693   0.00000  Uiso   1.00
C2944  C     0.12500   0.71917   0.58712   0.00000  Uiso   1.00
C2945  C     0.00000   0.63972   0.51808   0.00000  Uiso   1.00
C2946  C     0.00000   0.65582   0.53788   0.00000  Uiso   1.00
C2947  C     0.12500   0.51472   0.64308   0.00000  Uiso   1.00
C2948  C     0.12500   0.53082   0.66287   0.00000  Uiso   1.00
C2949  C     0.00000   0.73528   0.51808   0.00000  Uiso   1.00
C2950  C     0.00000   0.71917   0.53788   0.00000  Uiso   1.00
C2951  C     0.12500   0.61028   0.64308   0.00000  Uiso   1.00
C2952  C     0.12500   0.59418   0.66287   0.00000  Uiso   1.00
C2953  C     0.45521   0.50736   0.74097   0.00000  Uiso   1.00
C2954  C     0.29250   0.53780   0.70355   0.00000  Uiso   1.00
O2955  O     0.45750   0.53780   0.70355   0.00000  Uiso   1.00
C2956  C     0.33021   0.63236   0.61597   0.00000  Uiso   1.00
C2957  C     0.41750   0.66280   0.57855   0.00000  Uiso   1.00
O2958  O     0.33250   0.66280   0.57855   0.00000  Uiso   1.00
C2959  C     0.29479   0.61764   0.74097   0.00000  Uiso   1.00
C2960  C     0.45750   0.58720   0.70355   0.00000  Uiso   1.00
O2961  O     0.29250   0.58720   0.70355   0.00000  Uiso   1.00
C2962  C     0.41979   0.74264   0.61597   0.00000  Uiso   1.00
C2963  C     0.33250   0.71220   0.57855   0.00000  Uiso   1.00
O2964  O     0.41750   0.71220   0.57855   0.00000  Uiso   1.00
C2965  C     0.29479   0.63236   0.50903   0.00000  Uiso   1.00
C2966  C     0.45750   0.66280   0.54645   0.00000  Uiso   1.00
O2967  O     0.29250   0.66280   0.54645   0.00000  Uiso   1.00
C2968  C     0.41979   0.50736   0.63403   0.00000  Uiso   1.00
C2969  C     0.33250   0.53780   0.67145   0.00000  Uiso   1.00
O2970  O     0.41750   0.53780   0.67145   0.00000  Uiso   1.00
C2971  C     0.45521   0.74264   0.50903   0.00000  Uiso   1.00
C2972  C     0.29250   0.71220   0.54645   0.00000  Uiso   1.00
O2973  O     0.45750   0.71220   0.54645   0.00000  Uiso   1.00
C2974  C     0.33021   0.61764   0.63403   0.00000  Uiso   1.00
C2975  C     0.41750   0.58720   0.67145   0.00000  Uiso   1.00
O2976  O     0.33250   0.58720   0.67145   0.00000  Uiso   1.00
C2977  C     0.29479   0.74264   0.50903   0.00000  Uiso   1.00
C2978  C     0.45750   0.71220   0.54645   0.00000  Uiso   1.00
O2979  O     0.29250   0.71220   0.54645   0.00000  Uiso   1.00
C2980  C     0.41979   0.61764   0.63403   0.00000  Uiso   1.00
C2981  C     0.33250   0.58720   0.67145   0.00000  Uiso   1.00
O2982  O     0.41750   0.58720   0.67145   0.00000  Uiso   1.00
C2983  C     0.45521   0.63236   0.50903   0.00000  Uiso   1.00
C2984  C     0.29250   0.66280   0.54645   0.00000  Uiso   1.00
O2985  O     0.45750   0.66280   0.54645   0.00000  Uiso   1.00
C2986  C     0.33021   0.50736   0.63403   0.00000  Uiso   1.00
C2987  C     0.41750   0.53780   0.67145   0.00000  Uiso   1.00
O2988  O     0.33250   0.53780   0.67145   0.00000  Uiso   1.00
C2989  C     0.45521   0.61764   0.74097   0.00000  Uiso   1.00
C2990  C     0.29250   0.58720   0.70355   0.00000  Uiso   1.00
O2991  O     0.45750   0.58720   0.70355   0.00000  Uiso   1.00
C2992  C     0.33021   0.74264   0.61597   0.00000  Uiso   1.00
C2993  C     0.41750   0.71220   0.57855   0.00000  Uiso   1.00
O2994  O     0.33250   0.71220   0.57855   0.00000  Uiso   1.00
C2995  C     0.29479   0.50736   0.74097   0.00000  Uiso   1.00
C2996  C     0.45750   0.53780   0.70355   0.00000  Uiso   1.00
O2997  O     0.29250   0.53780   0.70355   0.00000  Uiso   1.00
C2998  C     0.41979   0.63236   0.61597   0.00000  Uiso   1.00
C2999  C     0.33250   0.66280   0.57855   0.00000  Uiso   1.00
O3000  O     0.41750   0.66280   0.57855   0.00000  Uiso   1.00
Al3001 Al    0.31250   0.56250   0.68750   0.00000  Uiso   1.00
Al3002 Al    0.43750   0.56250   0.68750   0.00000  Uiso   1.00
Al3003 Al    0.43750   0.68750   0.56250   0.00000  Uiso   1.00
Al3004 Al    0.31250   0.68750   0.56250   0.00000  Uiso   1.00
O3005  O     0.25000   0.56250   0.66824   0.00000  Uiso   1.00
O3006  O     0.37500   0.68750   0.54325   0.00000  Uiso   1.00
O3007  O     0.25000   0.68750   0.58176   0.00000  Uiso   1.00
O3008  O     0.37500   0.56250   0.70676   0.00000  Uiso   1.00
C3009  C     0.25000   0.51472   0.73192   0.00000  Uiso   1.00
C3010  C     0.25000   0.53082   0.71212   0.00000  Uiso   1.00
C3011  C     0.37500   0.63972   0.60693   0.00000  Uiso   1.00
C3012  C     0.37500   0.65582   0.58712   0.00000  Uiso   1.00
C3013  C     0.25000   0.61028   0.73192   0.00000  Uiso   1.00
C3014  C     0.25000   0.59418   0.71212   0.00000  Uiso   1.00
C3015  C     0.37500   0.73528   0.60693   0.00000  Uiso   1.00
C3016  C     0.37500   0.71917   0.58712   0.00000  Uiso   1.00
C3017  C     0.25000   0.63972   0.51808   0.00000  Uiso   1.00
C3018  C     0.25000   0.65582   0.53788   0.00000  Uiso   1.00
C3019  C     0.37500   0.51472   0.64308   0.00000  Uiso   1.00
C3020  C     0.37500   0.53082   0.66287   0.00000  Uiso   1.00
C3021  C     0.25000   0.73528   0.51808   0.00000  Uiso   1.00
C3022  C     0.25000   0.71917   0.53788   0.00000  Uiso   1.00
C3023  C     0.37500   0.61028   0.64308   0.00000  Uiso   1.00
C3024  C     0.37500   0.59418   0.66287   0.00000  Uiso   1.00
C3025  C     0.70521   0.50736   0.74097   0.00000  Uiso   1.00
C3026  C     0.54250   0.53780   0.70355   0.00000  Uiso   1.00
O3027  O     0.70750   0.53780   0.70355   0.00000  Uiso   1.00
C3028  C     0.58021   0.63236   0.61597   0.00000  Uiso   1.00
C3029  C     0.66750   0.66280   0.57855   0.00000  Uiso   1.00
O3030  O     0.58250   0.66280   0.57855   0.00000  Uiso   1.00
C3031  C     0.54479   0.61764   0.74097   0.00000  Uiso   1.00
C3032  C     0.70750   0.58720   0.70355   0.00000  Uiso   1.00
O3033  O     0.54250   0.58720   0.70355   0.00000  Uiso   1.00
C3034  C     0.66979   0.74264   0.61597   0.00000  Uiso   1.00
C3035  C     0.58250   0.71220   0.57855   0.00000  Uiso   1.00
O3036  O     0.66750   0.71220   0.57855   0.00000  Uiso   1.00
C3037  C     0.54479   0.63236   0.50903   0.00000  Uiso   1.00
C3038  C     0.70750   0.66280   0.54645   0.00000  Uiso   1.00
O3039  O     0.54250   0.66280   0.54645   0.00000  Uiso   1.00
C3040  C     0.66979   0.50736   0.63403   0.00000  Uiso   1.00
C3041  C     0.58250   0.53780   0.67145   0.00000  Uiso   1.00
O3042  O     0.66750   0.53780   0.67145   0.00000  Uiso   1.00
C3043  C     0.70521   0.74264   0.50903   0.00000  Uiso   1.00
C3044  C     0.54250   0.71220   0.54645   0.00000  Uiso   1.00
O3045  O     0.70750   0.71220   0.54645   0.00000  Uiso   1.00
C3046  C     0.58021   0.61764   0.63403   0.00000  Uiso   1.00
C3047  C     0.66750   0.58720   0.67145   0.00000  Uiso   1.00
O3048  O     0.58250   0.58720   0.67145   0.00000  Uiso   1.00
C3049  C     0.54479   0.74264   0.50903   0.00000  Uiso   1.00
C3050  C     0.70750   0.71220   0.54645   0.00000  Uiso   1.00
O3051  O     0.54250   0.71220   0.54645   0.00000  Uiso   1.00
C3052  C     0.66979   0.61764   0.63403   0.00000  Uiso   1.00
C3053  C     0.58250   0.58720   0.67145   0.00000  Uiso   1.00
O3054  O     0.66750   0.58720   0.67145   0.00000  Uiso   1.00
C3055  C     0.70521   0.63236   0.50903   0.00000  Uiso   1.00
C3056  C     0.54250   0.66280   0.54645   0.00000  Uiso   1.00
O3057  O     0.70750   0.66280   0.54645   0.00000  Uiso   1.00
C3058  C     0.58021   0.50736   0.63403   0.00000  Uiso   1.00
C3059  C     0.66750   0.53780   0.67145   0.00000  Uiso   1.00
O3060  O     0.58250   0.53780   0.67145   0.00000  Uiso   1.00
C3061  C     0.70521   0.61764   0.74097   0.00000  Uiso   1.00
C3062  C     0.54250   0.58720   0.70355   0.00000  Uiso   1.00
O3063  O     0.70750   0.58720   0.70355   0.00000  Uiso   1.00
C3064  C     0.58021   0.74264   0.61597   0.00000  Uiso   1.00
C3065  C     0.66750   0.71220   0.57855   0.00000  Uiso   1.00
O3066  O     0.58250   0.71220   0.57855   0.00000  Uiso   1.00
C3067  C     0.54479   0.50736   0.74097   0.00000  Uiso   1.00
C3068  C     0.70750   0.53780   0.70355   0.00000  Uiso   1.00
O3069  O     0.54250   0.53780   0.70355   0.00000  Uiso   1.00
C3070  C     0.66979   0.63236   0.61597   0.00000  Uiso   1.00
C3071  C     0.58250   0.66280   0.57855   0.00000  Uiso   1.00
O3072  O     0.66750   0.66280   0.57855   0.00000  Uiso   1.00
Al3073 Al    0.56250   0.56250   0.68750   0.00000  Uiso   1.00
Al3074 Al    0.68750   0.56250   0.68750   0.00000  Uiso   1.00
Al3075 Al    0.68750   0.68750   0.56250   0.00000  Uiso   1.00
Al3076 Al    0.56250   0.68750   0.56250   0.00000  Uiso   1.00
O3077  O     0.50000   0.56250   0.66824   0.00000  Uiso   1.00
O3078  O     0.62500   0.68750   0.54325   0.00000  Uiso   1.00
O3079  O     0.50000   0.68750   0.58176   0.00000  Uiso   1.00
O3080  O     0.62500   0.56250   0.70676   0.00000  Uiso   1.00
C3081  C     0.50000   0.51472   0.73192   0.00000  Uiso   1.00
C3082  C     0.50000   0.53082   0.71212   0.00000  Uiso   1.00
C3083  C     0.62500   0.63972   0.60693   0.00000  Uiso   1.00
C3084  C     0.62500   0.65582   0.58712   0.00000  Uiso   1.00
C3085  C     0.50000   0.61028   0.73192   0.00000  Uiso   1.00
C3086  C     0.50000   0.59418   0.71212   0.00000  Uiso   1.00
C3087  C     0.62500   0.73528   0.60693   0.00000  Uiso   1.00
C3088  C     0.62500   0.71917   0.58712   0.00000  Uiso   1.00
C3089  C     0.50000   0.63972   0.51808   0.00000  Uiso   1.00
C3090  C     0.50000   0.65582   0.53788   0.00000  Uiso   1.00
C3091  C     0.62500   0.51472   0.64308   0.00000  Uiso   1.00
C3092  C     0.62500   0.53082   0.66287   0.00000  Uiso   1.00
C3093  C     0.50000   0.73528   0.51808   0.00000  Uiso   1.00
C3094  C     0.50000   0.71917   0.53788   0.00000  Uiso   1.00
C3095  C     0.62500   0.61028   0.64308   0.00000  Uiso   1.00
C3096  C     0.62500   0.59418   0.66287   0.00000  Uiso   1.00
C3097  C     0.95521   0.50736   0.74097   0.00000  Uiso   1.00
C3098  C     0.79250   0.53780   0.70355   0.00000  Uiso   1.00
O3099  O     0.95750   0.53780   0.70355   0.00000  Uiso   1.00
C3100  C     0.83021   0.63236   0.61597   0.00000  Uiso   1.00
C3101  C     0.91750   0.66280   0.57855   0.00000  Uiso   1.00
O3102  O     0.83250   0.66280   0.57855   0.00000  Uiso   1.00
C3103  C     0.79479   0.61764   0.74097   0.00000  Uiso   1.00
C3104  C     0.95750   0.58720   0.70355   0.00000  Uiso   1.00
O3105  O     0.79250   0.58720   0.70355   0.00000  Uiso   1.00
C3106  C     0.91979   0.74264   0.61597   0.00000  Uiso   1.00
C3107  C     0.83250   0.71220   0.57855   0.00000  Uiso   1.00
O3108  O     0.91750   0.71220   0.57855   0.00000  Uiso   1.00
C3109  C     0.79479   0.63236   0.50903   0.00000  Uiso   1.00
C3110  C     0.95750   0.66280   0.54645   0.00000  Uiso   1.00
O3111  O     0.79250   0.66280   0.54645   0.00000  Uiso   1.00
C3112  C     0.91979   0.50736   0.63403   0.00000  Uiso   1.00
C3113  C     0.83250   0.53780   0.67145   0.00000  Uiso   1.00
O3114  O     0.91750   0.53780   0.67145   0.00000  Uiso   1.00
C3115  C     0.95521   0.74264   0.50903   0.00000  Uiso   1.00
C3116  C     0.79250   0.71220   0.54645   0.00000  Uiso   1.00
O3117  O     0.95750   0.71220   0.54645   0.00000  Uiso   1.00
C3118  C     0.83021   0.61764   0.63403   0.00000  Uiso   1.00
C3119  C     0.91750   0.58720   0.67145   0.00000  Uiso   1.00
O3120  O     0.83250   0.58720   0.67145   0.00000  Uiso   1.00
C3121  C     0.79479   0.74264   0.50903   0.00000  Uiso   1.00
C3122  C     0.95750   0.71220   0.54645   0.00000  Uiso   1.00
O3123  O     0.79250   0.71220   0.54645   0.00000  Uiso   1.00
C3124  C     0.91979   0.61764   0.63403   0.00000  Uiso   1.00
C3125  C     0.83250   0.58720   0.67145   0.00000  Uiso   1.00
O3126  O     0.91750   0.58720   0.67145   0.00000  Uiso   1.00
C3127  C     0.95521   0.63236   0.50903   0.00000  Uiso   1.00
C3128  C     0.79250   0.66280   0.54645   0.00000  Uiso   1.00
O3129  O     0.95750   0.66280   0.54645   0.00000  Uiso   1.00
C3130  C     0.83021   0.50736   0.63403   0.00000  Uiso   1.00
C3131  C     0.91750   0.53780   0.67145   0.00000  Uiso   1.00
O3132  O     0.83250   0.53780   0.67145   0.00000  Uiso   1.00
C3133  C     0.95521   0.61764   0.74097   0.00000  Uiso   1.00
C3134  C     0.79250   0.58720   0.70355   0.00000  Uiso   1.00
O3135  O     0.95750   0.58720   0.70355   0.00000  Uiso   1.00
C3136  C     0.83021   0.74264   0.61597   0.00000  Uiso   1.00
C3137  C     0.91750   0.71220   0.57855   0.00000  Uiso   1.00
O3138  O     0.83250   0.71220   0.57855   0.00000  Uiso   1.00
C3139  C     0.79479   0.50736   0.74097   0.00000  Uiso   1.00
C3140  C     0.95750   0.53780   0.70355   0.00000  Uiso   1.00
O3141  O     0.79250   0.53780   0.70355   0.00000  Uiso   1.00
C3142  C     0.91979   0.63236   0.61597   0.00000  Uiso   1.00
C3143  C     0.83250   0.66280   0.57855   0.00000  Uiso   1.00
O3144  O     0.91750   0.66280   0.57855   0.00000  Uiso   1.00
Al3145 Al    0.81250   0.56250   0.68750   0.00000  Uiso   1.00
Al3146 Al    0.93750   0.56250   0.68750   0.00000  Uiso   1.00
Al3147 Al    0.93750   0.68750   0.56250   0.00000  Uiso   1.00
Al3148 Al    0.81250   0.68750   0.56250   0.00000  Uiso   1.00
O3149  O     0.75000   0.56250   0.66824   0.00000  Uiso   1.00
O3150  O     0.87500   0.68750   0.54325   0.00000  Uiso   1.00
O3151  O     0.75000   0.68750   0.58176   0.00000  Uiso   1.00
O3152  O     0.87500   0.56250   0.70676   0.00000  Uiso   1.00
C3153  C     0.75000   0.51472   0.73192   0.00000  Uiso   1.00
C3154  C     0.75000   0.53082   0.71212   0.00000  Uiso   1.00
C3155  C     0.87500   0.63972   0.60693   0.00000  Uiso   1.00
C3156  C     0.87500   0.65582   0.58712   0.00000  Uiso   1.00
C3157  C     0.75000   0.61028   0.73192   0.00000  Uiso   1.00
C3158  C     0.75000   0.59418   0.71212   0.00000  Uiso   1.00
C3159  C     0.87500   0.73528   0.60693   0.00000  Uiso   1.00
C3160  C     0.87500   0.71917   0.58712   0.00000  Uiso   1.00
C3161  C     0.75000   0.63972   0.51808   0.00000  Uiso   1.00
C3162  C     0.75000   0.65582   0.53788   0.00000  Uiso   1.00
C3163  C     0.87500   0.51472   0.64308   0.00000  Uiso   1.00
C3164  C     0.87500   0.53082   0.66287   0.00000  Uiso   1.00
C3165  C     0.75000   0.73528   0.51808   0.00000  Uiso   1.00
C3166  C     0.75000   0.71917   0.53788   0.00000  Uiso   1.00
C3167  C     0.87500   0.61028   0.64308   0.00000  Uiso   1.00
C3168  C     0.87500   0.59418   0.66287   0.00000  Uiso   1.00
C3169  C     0.20521   0.75736   0.74097   0.00000  Uiso   1.00
C3170  C     0.04250   0.78780   0.70355   0.00000  Uiso   1.00
O3171  O     0.20750   0.78780   0.70355   0.00000  Uiso   1.00
C3172  C     0.08021   0.88236   0.61597   0.00000  Uiso   1.00
C3173  C     0.16750   0.91280   0.57855   0.00000  Uiso   1.00
O3174  O     0.08250   0.91280   0.57855   0.00000  Uiso   1.00
C3175  C     0.04479   0.86764   0.74097   0.00000  Uiso   1.00
C3176  C     0.20750   0.83720   0.70355   0.00000  Uiso   1.00
O3177  O     0.04250   0.83720   0.70355   0.00000  Uiso   1.00
C3178  C     0.16979   0.99264   0.61597   0.00000  Uiso   1.00
C3179  C     0.08250   0.96220   0.57855   0.00000  Uiso   1.00
O3180  O     0.16750   0.96220   0.57855   0.00000  Uiso   1.00
C3181  C     0.04479   0.88236   0.50903   0.00000  Uiso   1.00
C3182  C     0.20750   0.91280   0.54645   0.00000  Uiso   1.00
O3183  O     0.04250   0.91280   0.54645   0.00000  Uiso   1.00
C3184  C     0.16979   0.75736   0.63403   0.00000  Uiso   1.00
C3185  C     0.08250   0.78780   0.67145   0.00000  Uiso   1.00
O3186  O     0.16750   0.78780   0.67145   0.00000  Uiso   1.00
C3187  C     0.20521   0.99264   0.50903   0.00000  Uiso   1.00
C3188  C     0.04250   0.96220   0.54645   0.00000  Uiso   1.00
O3189  O     0.20750   0.96220   0.54645   0.00000  Uiso   1.00
C3190  C     0.08021   0.86764   0.63403   0.00000  Uiso   1.00
C3191  C     0.16750   0.83720   0.67145   0.00000  Uiso   1.00
O3192  O     0.08250   0.83720   0.67145   0.00000  Uiso   1.00
C3193  C     0.04479   0.99264   0.50903   0.00000  Uiso   1.00
C3194  C     0.20750   0.96220   0.54645   0.00000  Uiso   1.00
O3195  O     0.04250   0.96220   0.54645   0.00000  Uiso   1.00
C3196  C     0.16979   0.86764   0.63403   0.00000  Uiso   1.00
C3197  C     0.08250   0.83720   0.67145   0.00000  Uiso   1.00
O3198  O     0.16750   0.83720   0.67145   0.00000  Uiso   1.00
C3199  C     0.20521   0.88236   0.50903   0.00000  Uiso   1.00
C3200  C     0.04250   0.91280   0.54645   0.00000  Uiso   1.00
O3201  O     0.20750   0.91280   0.54645   0.00000  Uiso   1.00
C3202  C     0.08021   0.75736   0.63403   0.00000  Uiso   1.00
C3203  C     0.16750   0.78780   0.67145   0.00000  Uiso   1.00
O3204  O     0.08250   0.78780   0.67145   0.00000  Uiso   1.00
C3205  C     0.20521   0.86764   0.74097   0.00000  Uiso   1.00
C3206  C     0.04250   0.83720   0.70355   0.00000  Uiso   1.00
O3207  O     0.20750   0.83720   0.70355   0.00000  Uiso   1.00
C3208  C     0.08021   0.99264   0.61597   0.00000  Uiso   1.00
C3209  C     0.16750   0.96220   0.57855   0.00000  Uiso   1.00
O3210  O     0.08250   0.96220   0.57855   0.00000  Uiso   1.00
C3211  C     0.04479   0.75736   0.74097   0.00000  Uiso   1.00
C3212  C     0.20750   0.78780   0.70355   0.00000  Uiso   1.00
O3213  O     0.04250   0.78780   0.70355   0.00000  Uiso   1.00
C3214  C     0.16979   0.88236   0.61597   0.00000  Uiso   1.00
C3215  C     0.08250   0.91280   0.57855   0.00000  Uiso   1.00
O3216  O     0.16750   0.91280   0.57855   0.00000  Uiso   1.00
Al3217 Al    0.06250   0.81250   0.68750   0.00000  Uiso   1.00
Al3218 Al    0.18750   0.81250   0.68750   0.00000  Uiso   1.00
Al3219 Al    0.18750   0.93750   0.56250   0.00000  Uiso   1.00
Al3220 Al    0.06250   0.93750   0.56250   0.00000  Uiso   1.00
O3221  O     0.00000   0.81250   0.66824   0.00000  Uiso   1.00
O3222  O     0.12500   0.93750   0.54325   0.00000  Uiso   1.00
O3223  O     0.00000   0.93750   0.58176   0.00000  Uiso   1.00
O3224  O     0.12500   0.81250   0.70676   0.00000  Uiso   1.00
C3225  C     0.00000   0.76472   0.73192   0.00000  Uiso   1.00
C3226  C     0.00000   0.78082   0.71212   0.00000  Uiso   1.00
C3227  C     0.12500   0.88972   0.60693   0.00000  Uiso   1.00
C3228  C     0.12500   0.90582   0.58712   0.00000  Uiso   1.00
C3229  C     0.00000   0.86028   0.73192   0.00000  Uiso   1.00
C3230  C     0.00000   0.84418   0.71212   0.00000  Uiso   1.00
C3231  C     0.12500   0.98528   0.60693   0.00000  Uiso   1.00
C3232  C     0.12500   0.96917   0.58712   0.00000  Uiso   1.00
C3233  C     0.00000   0.88972   0.51808   0.00000  Uiso   1.00
C3234  C     0.00000   0.90582   0.53788   0.00000  Uiso   1.00
C3235  C     0.12500   0.76472   0.64308   0.00000  Uiso   1.00
C3236  C     0.12500   0.78082   0.66287   0.00000  Uiso   1.00
C3237  C     0.00000   0.98528   0.51808   0.00000  Uiso   1.00
C3238  C     0.00000   0.96917   0.53788   0.00000  Uiso   1.00
C3239  C     0.12500   0.86028   0.64308   0.00000  Uiso   1.00
C3240  C     0.12500   0.84418   0.66287   0.00000  Uiso   1.00
C3241  C     0.45521   0.75736   0.74097   0.00000  Uiso   1.00
C3242  C     0.29250   0.78780   0.70355   0.00000  Uiso   1.00
O3243  O     0.45750   0.78780   0.70355   0.00000  Uiso   1.00
C3244  C     0.33021   0.88236   0.61597   0.00000  Uiso   1.00
C3245  C     0.41750   0.91280   0.57855   0.00000  Uiso   1.00
O3246  O     0.33250   0.91280   0.57855   0.00000  Uiso   1.00
C3247  C     0.29479   0.86764   0.74097   0.00000  Uiso   1.00
C3248  C     0.45750   0.83720   0.70355   0.00000  Uiso   1.00
O3249  O     0.29250   0.83720   0.70355   0.00000  Uiso   1.00
C3250  C     0.41979   0.99264   0.61597   0.00000  Uiso   1.00
C3251  C     0.33250   0.96220   0.57855   0.00000  Uiso   1.00
O3252  O     0.41750   0.96220   0.57855   0.00000  Uiso   1.00
C3253  C     0.29479   0.88236   0.50903   0.00000  Uiso   1.00
C3254  C     0.45750   0.91280   0.54645   0.00000  Uiso   1.00
O3255  O     0.29250   0.91280   0.54645   0.00000  Uiso   1.00
C3256  C     0.41979   0.75736   0.63403   0.00000  Uiso   1.00
C3257  C     0.33250   0.78780   0.67145   0.00000  Uiso   1.00
O3258  O     0.41750   0.78780   0.67145   0.00000  Uiso   1.00
C3259  C     0.45521   0.99264   0.50903   0.00000  Uiso   1.00
C3260  C     0.29250   0.96220   0.54645   0.00000  Uiso   1.00
O3261  O     0.45750   0.96220   0.54645   0.00000  Uiso   1.00
C3262  C     0.33021   0.86764   0.63403   0.00000  Uiso   1.00
C3263  C     0.41750   0.83720   0.67145   0.00000  Uiso   1.00
O3264  O     0.33250   0.83720   0.67145   0.00000  Uiso   1.00
C3265  C     0.29479   0.99264   0.50903   0.00000  Uiso   1.00
C3266  C     0.45750   0.96220   0.54645   0.00000  Uiso   1.00
O3267  O     0.29250   0.96220   0.54645   0.00000  Uiso   1.00
C3268  C     0.41979   0.86764   0.63403   0.00000  Uiso   1.00
C3269  C     0.33250   0.83720   0.67145   0.00000  Uiso   1.00
O3270  O     0.41750   0.83720   0.67145   0.00000  Uiso   1.00
C3271  C     0.45521   0.88236   0.50903   0.00000  Uiso   1.00
C3272  C     0.29250   0.91280   0.54645   0.00000  Uiso   1.00
O3273  O     0.45750   0.91280   0.54645   0.00000  Uiso   1.00
C3274  C     0.33021   0.75736   0.63403   0.00000  Uiso   1.00
C3275  C     0.41750   0.78780   0.67145   0.00000  Uiso   1.00
O3276  O     0.33250   0.78780   0.67145   0.00000  Uiso   1.00
C3277  C     0.45521   0.86764   0.74097   0.00000  Uiso   1.00
C3278  C     0.29250   0.83720   0.70355   0.00000  Uiso   1.00
O3279  O     0.45750   0.83720   0.70355   0.00000  Uiso   1.00
C3280  C     0.33021   0.99264   0.61597   0.00000  Uiso   1.00
C3281  C     0.41750   0.96220   0.57855   0.00000  Uiso   1.00
O3282  O     0.33250   0.96220   0.57855   0.00000  Uiso   1.00
C3283  C     0.29479   0.75736   0.74097   0.00000  Uiso   1.00
C3284  C     0.45750   0.78780   0.70355   0.00000  Uiso   1.00
O3285  O     0.29250   0.78780   0.70355   0.00000  Uiso   1.00
C3286  C     0.41979   0.88236   0.61597   0.00000  Uiso   1.00
C3287  C     0.33250   0.91280   0.57855   0.00000  Uiso   1.00
O3288  O     0.41750   0.91280   0.57855   0.00000  Uiso   1.00
Al3289 Al    0.31250   0.81250   0.68750   0.00000  Uiso   1.00
Al3290 Al    0.43750   0.81250   0.68750   0.00000  Uiso   1.00
Al3291 Al    0.43750   0.93750   0.56250   0.00000  Uiso   1.00
Al3292 Al    0.31250   0.93750   0.56250   0.00000  Uiso   1.00
O3293  O     0.25000   0.81250   0.66824   0.00000  Uiso   1.00
O3294  O     0.37500   0.93750   0.54325   0.00000  Uiso   1.00
O3295  O     0.25000   0.93750   0.58176   0.00000  Uiso   1.00
O3296  O     0.37500   0.81250   0.70676   0.00000  Uiso   1.00
C3297  C     0.25000   0.76472   0.73192   0.00000  Uiso   1.00
C3298  C     0.25000   0.78082   0.71212   0.00000  Uiso   1.00
C3299  C     0.37500   0.88972   0.60693   0.00000  Uiso   1.00
C3300  C     0.37500   0.90582   0.58712   0.00000  Uiso   1.00
C3301  C     0.25000   0.86028   0.73192   0.00000  Uiso   1.00
C3302  C     0.25000   0.84418   0.71212   0.00000  Uiso   1.00
C3303  C     0.37500   0.98528   0.60693   0.00000  Uiso   1.00
C3304  C     0.37500   0.96917   0.58712   0.00000  Uiso   1.00
C3305  C     0.25000   0.88972   0.51808   0.00000  Uiso   1.00
C3306  C     0.25000   0.90582   0.53788   0.00000  Uiso   1.00
C3307  C     0.37500   0.76472   0.64308   0.00000  Uiso   1.00
C3308  C     0.37500   0.78082   0.66287   0.00000  Uiso   1.00
C3309  C     0.25000   0.98528   0.51808   0.00000  Uiso   1.00
C3310  C     0.25000   0.96917   0.53788   0.00000  Uiso   1.00
C3311  C     0.37500   0.86028   0.64308   0.00000  Uiso   1.00
C3312  C     0.37500   0.84418   0.66287   0.00000  Uiso   1.00
C3313  C     0.70521   0.75736   0.74097   0.00000  Uiso   1.00
C3314  C     0.54250   0.78780   0.70355   0.00000  Uiso   1.00
O3315  O     0.70750   0.78780   0.70355   0.00000  Uiso   1.00
C3316  C     0.58021   0.88236   0.61597   0.00000  Uiso   1.00
C3317  C     0.66750   0.91280   0.57855   0.00000  Uiso   1.00
O3318  O     0.58250   0.91280   0.57855   0.00000  Uiso   1.00
C3319  C     0.54479   0.86764   0.74097   0.00000  Uiso   1.00
C3320  C     0.70750   0.83720   0.70355   0.00000  Uiso   1.00
O3321  O     0.54250   0.83720   0.70355   0.00000  Uiso   1.00
C3322  C     0.66979   0.99264   0.61597   0.00000  Uiso   1.00
C3323  C     0.58250   0.96220   0.57855   0.00000  Uiso   1.00
O3324  O     0.66750   0.96220   0.57855   0.00000  Uiso   1.00
C3325  C     0.54479   0.88236   0.50903   0.00000  Uiso   1.00
C3326  C     0.70750   0.91280   0.54645   0.00000  Uiso   1.00
O3327  O     0.54250   0.91280   0.54645   0.00000  Uiso   1.00
C3328  C     0.66979   0.75736   0.63403   0.00000  Uiso   1.00
C3329  C     0.58250   0.78780   0.67145   0.00000  Uiso   1.00
O3330  O     0.66750   0.78780   0.67145   0.00000  Uiso   1.00
C3331  C     0.70521   0.99264   0.50903   0.00000  Uiso   1.00
C3332  C     0.54250   0.96220   0.54645   0.00000  Uiso   1.00
O3333  O     0.70750   0.96220   0.54645   0.00000  Uiso   1.00
C3334  C     0.58021   0.86764   0.63403   0.00000  Uiso   1.00
C3335  C     0.66750   0.83720   0.67145   0.00000  Uiso   1.00
O3336  O     0.58250   0.83720   0.67145   0.00000  Uiso   1.00
C3337  C     0.54479   0.99264   0.50903   0.00000  Uiso   1.00
C3338  C     0.70750   0.96220   0.54645   0.00000  Uiso   1.00
O3339  O     0.54250   0.96220   0.54645   0.00000  Uiso   1.00
C3340  C     0.66979   0.86764   0.63403   0.00000  Uiso   1.00
C3341  C     0.58250   0.83720   0.67145   0.00000  Uiso   1.00
O3342  O     0.66750   0.83720   0.67145   0.00000  Uiso   1.00
C3343  C     0.70521   0.88236   0.50903   0.00000  Uiso   1.00
C3344  C     0.54250   0.91280   0.54645   0.00000  Uiso   1.00
O3345  O     0.70750   0.91280   0.54645   0.00000  Uiso   1.00
C3346  C     0.58021   0.75736   0.63403   0.00000  Uiso   1.00
C3347  C     0.66750   0.78780   0.67145   0.00000  Uiso   1.00
O3348  O     0.58250   0.78780   0.67145   0.00000  Uiso   1.00
C3349  C     0.70521   0.86764   0.74097   0.00000  Uiso   1.00
C3350  C     0.54250   0.83720   0.70355   0.00000  Uiso   1.00
O3351  O     0.70750   0.83720   0.70355   0.00000  Uiso   1.00
C3352  C     0.58021   0.99264   0.61597   0.00000  Uiso   1.00
C3353  C     0.66750   0.96220   0.57855   0.00000  Uiso   1.00
O3354  O     0.58250   0.96220   0.57855   0.00000  Uiso   1.00
C3355  C     0.54479   0.75736   0.74097   0.00000  Uiso   1.00
C3356  C     0.70750   0.78780   0.70355   0.00000  Uiso   1.00
O3357  O     0.54250   0.78780   0.70355   0.00000  Uiso   1.00
C3358  C     0.66979   0.88236   0.61597   0.00000  Uiso   1.00
C3359  C     0.58250   0.91280   0.57855   0.00000  Uiso   1.00
O3360  O     0.66750   0.91280   0.57855   0.00000  Uiso   1.00
Al3361 Al    0.56250   0.81250   0.68750   0.00000  Uiso   1.00
Al3362 Al    0.68750   0.81250   0.68750   0.00000  Uiso   1.00
Al3363 Al    0.68750   0.93750   0.56250   0.00000  Uiso   1.00
Al3364 Al    0.56250   0.93750   0.56250   0.00000  Uiso   1.00
O3365  O     0.50000   0.81250   0.66824   0.00000  Uiso   1.00
O3366  O     0.62500   0.93750   0.54325   0.00000  Uiso   1.00
O3367  O     0.50000   0.93750   0.58176   0.00000  Uiso   1.00
O3368  O     0.62500   0.81250   0.70676   0.00000  Uiso   1.00
C3369  C     0.50000   0.76472   0.73192   0.00000  Uiso   1.00
C3370  C     0.50000   0.78082   0.71212   0.00000  Uiso   1.00
C3371  C     0.62500   0.88972   0.60693   0.00000  Uiso   1.00
C3372  C     0.62500   0.90582   0.58712   0.00000  Uiso   1.00
C3373  C     0.50000   0.86028   0.73192   0.00000  Uiso   1.00
C3374  C     0.50000   0.84418   0.71212   0.00000  Uiso   1.00
C3375  C     0.62500   0.98528   0.60693   0.00000  Uiso   1.00
C3376  C     0.62500   0.96917   0.58712   0.00000  Uiso   1.00
C3377  C     0.50000   0.88972   0.51808   0.00000  Uiso   1.00
C3378  C     0.50000   0.90582   0.53788   0.00000  Uiso   1.00
C3379  C     0.62500   0.76472   0.64308   0.00000  Uiso   1.00
C3380  C     0.62500   0.78082   0.66287   0.00000  Uiso   1.00
C3381  C     0.50000   0.98528   0.51808   0.00000  Uiso   1.00
C3382  C     0.50000   0.96917   0.53788   0.00000  Uiso   1.00
C3383  C     0.62500   0.86028   0.64308   0.00000  Uiso   1.00
C3384  C     0.62500   0.84418   0.66287   0.00000  Uiso   1.00
C3385  C     0.95521   0.75736   0.74097   0.00000  Uiso   1.00
C3386  C     0.79250   0.78780   0.70355   0.00000  Uiso   1.00
O3387  O     0.95750   0.78780   0.70355   0.00000  Uiso   1.00
C3388  C     0.83021   0.88236   0.61597   0.00000  Uiso   1.00
C3389  C     0.91750   0.91280   0.57855   0.00000  Uiso   1.00
O3390  O     0.83250   0.91280   0.57855   0.00000  Uiso   1.00
C3391  C     0.79479   0.86764   0.74097   0.00000  Uiso   1.00
C3392  C     0.95750   0.83720   0.70355   0.00000  Uiso   1.00
O3393  O     0.79250   0.83720   0.70355   0.00000  Uiso   1.00
C3394  C     0.91979   0.99264   0.61597   0.00000  Uiso   1.00
C3395  C     0.83250   0.96220   0.57855   0.00000  Uiso   1.00
O3396  O     0.91750   0.96220   0.57855   0.00000  Uiso   1.00
C3397  C     0.79479   0.88236   0.50903   0.00000  Uiso   1.00
C3398  C     0.95750   0.91280   0.54645   0.00000  Uiso   1.00
O3399  O     0.79250   0.91280   0.54645   0.00000  Uiso   1.00
C3400  C     0.91979   0.75736   0.63403   0.00000  Uiso   1.00
C3401  C     0.83250   0.78780   0.67145   0.00000  Uiso   1.00
O3402  O     0.91750   0.78780   0.67145   0.00000  Uiso   1.00
C3403  C     0.95521   0.99264   0.50903   0.00000  Uiso   1.00
C3404  C     0.79250   0.96220   0.54645   0.00000  Uiso   1.00
O3405  O     0.95750   0.96220   0.54645   0.00000  Uiso   1.00
C3406  C     0.83021   0.86764   0.63403   0.00000  Uiso   1.00
C3407  C     0.91750   0.83720   0.67145   0.00000  Uiso   1.00
O3408  O     0.83250   0.83720   0.67145   0.00000  Uiso   1.00
C3409  C     0.79479   0.99264   0.50903   0.00000  Uiso   1.00
C3410  C     0.95750   0.96220   0.54645   0.00000  Uiso   1.00
O3411  O     0.79250   0.96220   0.54645   0.00000  Uiso   1.00
C3412  C     0.91979   0.86764   0.63403   0.00000  Uiso   1.00
C3413  C     0.83250   0.83720   0.67145   0.00000  Uiso   1.00
O3414  O     0.91750   0.83720   0.67145   0.00000  Uiso   1.00
C3415  C     0.95521   0.88236   0.50903   0.00000  Uiso   1.00
C3416  C     0.79250   0.91280   0.54645   0.00000  Uiso   1.00
O3417  O     0.95750   0.91280   0.54645   0.00000  Uiso   1.00
C3418  C     0.83021   0.75736   0.63403   0.00000  Uiso   1.00
C3419  C     0.91750   0.78780   0.67145   0.00000  Uiso   1.00
O3420  O     0.83250   0.78780   0.67145   0.00000  Uiso   1.00
C3421  C     0.95521   0.86764   0.74097   0.00000  Uiso   1.00
C3422  C     0.79250   0.83720   0.70355   0.00000  Uiso   1.00
O3423  O     0.95750   0.83720   0.70355   0.00000  Uiso   1.00
C3424  C     0.83021   0.99264   0.61597   0.00000  Uiso   1.00
C3425  C     0.91750   0.96220   0.57855   0.00000  Uiso   1.00
O3426  O     0.83250   0.96220   0.57855   0.00000  Uiso   1.00
C3427  C     0.79479   0.75736   0.74097   0.00000  Uiso   1.00
C3428  C     0.95750   0.78780   0.70355   0.00000  Uiso   1.00
O3429  O     0.79250   0.78780   0.70355   0.00000  Uiso   1.00
C3430  C     0.91979   0.88236   0.61597   0.00000  Uiso   1.00
C3431  C     0.83250   0.91280   0.57855   0.00000  Uiso   1.00
O3432  O     0.91750   0.91280   0.57855   0.00000  Uiso   1.00
Al3433 Al    0.81250   0.81250   0.68750   0.00000  Uiso   1.00
Al3434 Al    0.93750   0.81250   0.68750   0.00000  Uiso   1.00
Al3435 Al    0.93750   0.93750   0.56250   0.00000  Uiso   1.00
Al3436 Al    0.81250   0.93750   0.56250   0.00000  Uiso   1.00
O3437  O     0.75000   0.81250   0.66824   0.00000  Uiso   1.00
O3438  O     0.87500   0.93750   0.54325   0.00000  Uiso   1.00
O3439  O     0.75000   0.93750   0.58176   0.00000  Uiso   1.00
O3440  O     0.87500   0.81250   0.70676   0.00000  Uiso   1.00
C3441  C     0.75000   0.76472   0.73192   0.00000  Uiso   1.00
C3442  C     0.75000   0.78082   0.71212   0.00000  Uiso   1.00
C3443  C     0.87500   0.88972   0.60693   0.00000  Uiso   1.00
C3444  C     0.87500   0.90582   0.58712   0.00000  Uiso   1.00
C3445  C     0.75000   0.86028   0.73192   0.00000  Uiso   1.00
C3446  C     0.75000   0.84418   0.71212   0.00000  Uiso   1.00
C3447  C     0.87500   0.98528   0.60693   0.00000  Uiso   1.00
C3448  C     0.87500   0.96917   0.58712   0.00000  Uiso   1.00
C3449  C     0.75000   0.88972   0.51808   0.00000  Uiso   1.00
C3450  C     0.75000   0.90582   0.53788   0.00000  Uiso   1.00
C3451  C     0.87500   0.76472   0.64308   0.00000  Uiso   1.00
C3452  C     0.87500   0.78082   0.66287   0.00000  Uiso   1.00
C3453  C     0.75000   0.98528   0.51808   0.00000  Uiso   1.00
C3454  C     0.75000   0.96917   0.53788   0.00000  Uiso   1.00
C3455  C     0.87500   0.86028   0.64308   0.00000  Uiso   1.00
C3456  C     0.87500   0.84418   0.66287   0.00000  Uiso   1.00
C3457  C     0.20521   0.00736   0.99097   0.00000  Uiso   1.00
C3458  C     0.04250   0.03780   0.95355   0.00000  Uiso   1.00
O3459  O     0.20750   0.03780   0.95355   0.00000  Uiso   1.00
C3460  C     0.08021   0.13236   0.86597   0.00000  Uiso   1.00
C3461  C     0.16750   0.16280   0.82855   0.00000  Uiso   1.00
O3462  O     0.08250   0.16280   0.82855   0.00000  Uiso   1.00
C3463  C     0.04479   0.11764   0.99097   0.00000  Uiso   1.00
C3464  C     0.20750   0.08720   0.95355   0.00000  Uiso   1.00
O3465  O     0.04250   0.08720   0.95355   0.00000  Uiso   1.00
C3466  C     0.16979   0.24264   0.86597   0.00000  Uiso   1.00
C3467  C     0.08250   0.21220   0.82855   0.00000  Uiso   1.00
O3468  O     0.16750   0.21220   0.82855   0.00000  Uiso   1.00
C3469  C     0.04479   0.13236   0.75903   0.00000  Uiso   1.00
C3470  C     0.20750   0.16280   0.79645   0.00000  Uiso   1.00
O3471  O     0.04250   0.16280   0.79645   0.00000  Uiso   1.00
C3472  C     0.16979   0.00736   0.88403   0.00000  Uiso   1.00
C3473  C     0.08250   0.03780   0.92145   0.00000  Uiso   1.00
O3474  O     0.16750   0.03780   0.92145   0.00000  Uiso   1.00
C3475  C     0.20521   0.24264   0.75903   0.00000  Uiso   1.00
C3476  C     0.04250   0.21220   0.79645   0.00000  Uiso   1.00
O3477  O     0.20750   0.21220   0.79645   0.00000  Uiso   1.00
C3478  C     0.08021   0.11764   0.88403   0.00000  Uiso   1.00
C3479  C     0.16750   0.08720   0.92145   0.00000  Uiso   1.00
O3480  O     0.08250   0.08720   0.92145   0.00000  Uiso   1.00
C3481  C     0.04479   0.24264   0.75903   0.00000  Uiso   1.00
C3482  C     0.20750   0.21220   0.79645   0.00000  Uiso   1.00
O3483  O     0.04250   0.21220   0.79645   0.00000  Uiso   1.00
C3484  C     0.16979   0.11764   0.88403   0.00000  Uiso   1.00
C3485  C     0.08250   0.08720   0.92145   0.00000  Uiso   1.00
O3486  O     0.16750   0.08720   0.92145   0.00000  Uiso   1.00
C3487  C     0.20521   0.13236   0.75903   0.00000  Uiso   1.00
C3488  C     0.04250   0.16280   0.79645   0.00000  Uiso   1.00
O3489  O     0.20750   0.16280   0.79645   0.00000  Uiso   1.00
C3490  C     0.08021   0.00736   0.88403   0.00000  Uiso   1.00
C3491  C     0.16750   0.03780   0.92145   0.00000  Uiso   1.00
O3492  O     0.08250   0.03780   0.92145   0.00000  Uiso   1.00
C3493  C     0.20521   0.11764   0.99097   0.00000  Uiso   1.00
C3494  C     0.04250   0.08720   0.95355   0.00000  Uiso   1.00
O3495  O     0.20750   0.08720   0.95355   0.00000  Uiso   1.00
C3496  C     0.08021   0.24264   0.86597   0.00000  Uiso   1.00
C3497  C     0.16750   0.21220   0.82855   0.00000  Uiso   1.00
O3498  O     0.08250   0.21220   0.82855   0.00000  Uiso   1.00
C3499  C     0.04479   0.00736   0.99097   0.00000  Uiso   1.00
C3500  C     0.20750   0.03780   0.95355   0.00000  Uiso   1.00
O3501  O     0.04250   0.03780   0.95355   0.00000  Uiso   1.00
C3502  C     0.16979   0.13236   0.86597   0.00000  Uiso   1.00
C3503  C     0.08250   0.16280   0.82855   0.00000  Uiso   1.00
O3504  O     0.16750   0.16280   0.82855   0.00000  Uiso   1.00
Al3505 Al    0.06250   0.06250   0.93750   0.00000  Uiso   1.00
Al3506 Al    0.18750   0.06250   0.93750   0.00000  Uiso   1.00
Al3507 Al    0.18750   0.18750   0.81250   0.00000  Uiso   1.00
Al3508 Al    0.06250   0.18750   0.81250   0.00000  Uiso   1.00
O3509  O     0.00000   0.06250   0.91824   0.00000  Uiso   1.00
O3510  O     0.12500   0.18750   0.79325   0.00000  Uiso   1.00
O3511  O     0.00000   0.18750   0.83176   0.00000  Uiso   1.00
O3512  O     0.12500   0.06250   0.95676   0.00000  Uiso   1.00
C3513  C     0.00000   0.01472   0.98192   0.00000  Uiso   1.00
C3514  C     0.00000   0.03082   0.96212   0.00000  Uiso   1.00
C3515  C     0.12500   0.13972   0.85693   0.00000  Uiso   1.00
C3516  C     0.12500   0.15582   0.83712   0.00000  Uiso   1.00
C3517  C     0.00000   0.11028   0.98192   0.00000  Uiso   1.00
C3518  C     0.00000   0.09418   0.96212   0.00000  Uiso   1.00
C3519  C     0.12500   0.23528   0.85693   0.00000  Uiso   1.00
C3520  C     0.12500   0.21917   0.83712   0.00000  Uiso   1.00
C3521  C     0.00000   0.13972   0.76808   0.00000  Uiso   1.00
C3522  C     0.00000   0.15582   0.78788   0.00000  Uiso   1.00
C3523  C     0.12500   0.01472   0.89308   0.00000  Uiso   1.00
C3524  C     0.12500   0.03082   0.91287   0.00000  Uiso   1.00
C3525  C     0.00000   0.23528   0.76808   0.00000  Uiso   1.00
C3526  C     0.00000   0.21917   0.78788   0.00000  Uiso   1.00
C3527  C     0.12500   0.11028   0.89308   0.00000  Uiso   1.00
C3528  C     0.12500   0.09418   0.91287   0.00000  Uiso   1.00
C3529  C     0.45521   0.00736   0.99097   0.00000  Uiso   1.00
C3530  C     0.29250   0.03780   0.95355   0.00000  Uiso   1.00
O3531  O     0.45750   0.03780   0.95355   0.00000  Uiso   1.00
C3532  C     0.33021   0.13236   0.86597   0.00000  Uiso   1.00
C3533  C     0.41750   0.16280   0.82855   0.00000  Uiso   1.00
O3534  O     0.33250   0.16280   0.82855   0.00000  Uiso   1.00
C3535  C     0.29479   0.11764   0.99097   0.00000  Uiso   1.00
C3536  C     0.45750   0.08720   0.95355   0.00000  Uiso   1.00
O3537  O     0.29250   0.08720   0.95355   0.00000  Uiso   1.00
C3538  C     0.41979   0.24264   0.86597   0.00000  Uiso   1.00
C3539  C     0.33250   0.21220   0.82855   0.00000  Uiso   1.00
O3540  O     0.41750   0.21220   0.82855   0.00000  Uiso   1.00
C3541  C     0.29479   0.13236   0.75903   0.00000  Uiso   1.00
C3542  C     0.45750   0.16280   0.79645   0.00000  Uiso   1.00
O3543  O     0.29250   0.16280   0.79645   0.00000  Uiso   1.00
C3544  C     0.41979   0.00736   0.88403   0.00000  Uiso   1.00
C3545  C     0.33250   0.03780   0.92145   0.00000  Uiso   1.00
O3546  O     0.41750   0.03780   0.92145   0.00000  Uiso   1.00
C3547  C     0.45521   0.24264   0.75903   0.00000  Uiso   1.00
C3548  C     0.29250   0.21220   0.79645   0.00000  Uiso   1.00
O3549  O     0.45750   0.21220   0.79645   0.00000  Uiso   1.00
C3550  C     0.33021   0.11764   0.88403   0.00000  Uiso   1.00
C3551  C     0.41750   0.08720   0.92145   0.00000  Uiso   1.00
O3552  O     0.33250   0.08720   0.92145   0.00000  Uiso   1.00
C3553  C     0.29479   0.24264   0.75903   0.00000  Uiso   1.00
C3554  C     0.45750   0.21220   0.79645   0.00000  Uiso   1.00
O3555  O     0.29250   0.21220   0.79645   0.00000  Uiso   1.00
C3556  C     0.41979   0.11764   0.88403   0.00000  Uiso   1.00
C3557  C     0.33250   0.08720   0.92145   0.00000  Uiso   1.00
O3558  O     0.41750   0.08720   0.92145   0.00000  Uiso   1.00
C3559  C     0.45521   0.13236   0.75903   0.00000  Uiso   1.00
C3560  C     0.29250   0.16280   0.79645   0.00000  Uiso   1.00
O3561  O     0.45750   0.16280   0.79645   0.00000  Uiso   1.00
C3562  C     0.33021   0.00736   0.88403   0.00000  Uiso   1.00
C3563  C     0.41750   0.03780   0.92145   0.00000  Uiso   1.00
O3564  O     0.33250   0.03780   0.92145   0.00000  Uiso   1.00
C3565  C     0.45521   0.11764   0.99097   0.00000  Uiso   1.00
C3566  C     0.29250   0.08720   0.95355   0.00000  Uiso   1.00
O3567  O     0.45750   0.08720   0.95355   0.00000  Uiso   1.00
C3568  C     0.33021   0.24264   0.86597   0.00000  Uiso   1.00
C3569  C     0.41750   0.21220   0.82855   0.00000  Uiso   1.00
O3570  O     0.33250   0.21220   0.82855   0.00000  Uiso   1.00
C3571  C     0.29479   0.00736   0.99097   0.00000  Uiso   1.00
C3572  C     0.45750   0.03780   0.95355   0.00000  Uiso   1.00
O3573  O     0.29250   0.03780   0.95355   0.00000  Uiso   1.00
C3574  C     0.41979   0.13236   0.86597   0.00000  Uiso   1.00
C3575  C     0.33250   0.16280   0.82855   0.00000  Uiso   1.00
O3576  O     0.41750   0.16280   0.82855   0.00000  Uiso   1.00
Al3577 Al    0.31250   0.06250   0.93750   0.00000  Uiso   1.00
Al3578 Al    0.43750   0.06250   0.93750   0.00000  Uiso   1.00
Al3579 Al    0.43750   0.18750   0.81250   0.00000  Uiso   1.00
Al3580 Al    0.31250   0.18750   0.81250   0.00000  Uiso   1.00
O3581  O     0.25000   0.06250   0.91824   0.00000  Uiso   1.00
O3582  O     0.37500   0.18750   0.79325   0.00000  Uiso   1.00
O3583  O     0.25000   0.18750   0.83176   0.00000  Uiso   1.00
O3584  O     0.37500   0.06250   0.95676   0.00000  Uiso   1.00
C3585  C     0.25000   0.01472   0.98192   0.00000  Uiso   1.00
C3586  C     0.25000   0.03082   0.96212   0.00000  Uiso   1.00
C3587  C     0.37500   0.13972   0.85693   0.00000  Uiso   1.00
C3588  C     0.37500   0.15582   0.83712   0.00000  Uiso   1.00
C3589  C     0.25000   0.11028   0.98192   0.00000  Uiso   1.00
C3590  C     0.25000   0.09418   0.96212   0.00000  Uiso   1.00
C3591  C     0.37500   0.23528   0.85693   0.00000  Uiso   1.00
C3592  C     0.37500   0.21917   0.83712   0.00000  Uiso   1.00
C3593  C     0.25000   0.13972   0.76808   0.00000  Uiso   1.00
C3594  C     0.25000   0.15582   0.78788   0.00000  Uiso   1.00
C3595  C     0.37500   0.01472   0.89308   0.00000  Uiso   1.00
C3596  C     0.37500   0.03082   0.91287   0.00000  Uiso   1.00
C3597  C     0.25000   0.23528   0.76808   0.00000  Uiso   1.00
C3598  C     0.25000   0.21917   0.78788   0.00000  Uiso   1.00
C3599  C     0.37500   0.11028   0.89308   0.00000  Uiso   1.00
C3600  C     0.37500   0.09418   0.91287   0.00000  Uiso   1.00
C3601  C     0.70521   0.00736   0.99097   0.00000  Uiso   1.00
C3602  C     0.54250   0.03780   0.95355   0.00000  Uiso   1.00
O3603  O     0.70750   0.03780   0.95355   0.00000  Uiso   1.00
C3604  C     0.58021   0.13236   0.86597   0.00000  Uiso   1.00
C3605  C     0.66750   0.16280   0.82855   0.00000  Uiso   1.00
O3606  O     0.58250   0.16280   0.82855   0.00000  Uiso   1.00
C3607  C     0.54479   0.11764   0.99097   0.00000  Uiso   1.00
C3608  C     0.70750   0.08720   0.95355   0.00000  Uiso   1.00
O3609  O     0.54250   0.08720   0.95355   0.00000  Uiso   1.00
C3610  C     0.66979   0.24264   0.86597   0.00000  Uiso   1.00
C3611  C     0.58250   0.21220   0.82855   0.00000  Uiso   1.00
O3612  O     0.66750   0.21220   0.82855   0.00000  Uiso   1.00
C3613  C     0.54479   0.13236   0.75903   0.00000  Uiso   1.00
C3614  C     0.70750   0.16280   0.79645   0.00000  Uiso   1.00
O3615  O     0.54250   0.16280   0.79645   0.00000  Uiso   1.00
C3616  C     0.66979   0.00736   0.88403   0.00000  Uiso   1.00
C3617  C     0.58250   0.03780   0.92145   0.00000  Uiso   1.00
O3618  O     0.66750   0.03780   0.92145   0.00000  Uiso   1.00
C3619  C     0.70521   0.24264   0.75903   0.00000  Uiso   1.00
C3620  C     0.54250   0.21220   0.79645   0.00000  Uiso   1.00
O3621  O     0.70750   0.21220   0.79645   0.00000  Uiso   1.00
C3622  C     0.58021   0.11764   0.88403   0.00000  Uiso   1.00
C3623  C     0.66750   0.08720   0.92145   0.00000  Uiso   1.00
O3624  O     0.58250   0.08720   0.92145   0.00000  Uiso   1.00
C3625  C     0.54479   0.24264   0.75903   0.00000  Uiso   1.00
C3626  C     0.70750   0.21220   0.79645   0.00000  Uiso   1.00
O3627  O     0.54250   0.21220   0.79645   0.00000  Uiso   1.00
C3628  C     0.66979   0.11764   0.88403   0.00000  Uiso   1.00
C3629  C     0.58250   0.08720   0.92145   0.00000  Uiso   1.00
O3630  O     0.66750   0.08720   0.92145   0.00000  Uiso   1.00
C3631  C     0.70521   0.13236   0.75903   0.00000  Uiso   1.00
C3632  C     0.54250   0.16280   0.79645   0.00000  Uiso   1.00
O3633  O     0.70750   0.16280   0.79645   0.00000  Uiso   1.00
C3634  C     0.58021   0.00736   0.88403   0.00000  Uiso   1.00
C3635  C     0.66750   0.03780   0.92145   0.00000  Uiso   1.00
O3636  O     0.58250   0.03780   0.92145   0.00000  Uiso   1.00
C3637  C     0.70521   0.11764   0.99097   0.00000  Uiso   1.00
C3638  C     0.54250   0.08720   0.95355   0.00000  Uiso   1.00
O3639  O     0.70750   0.08720   0.95355   0.00000  Uiso   1.00
C3640  C     0.58021   0.24264   0.86597   0.00000  Uiso   1.00
C3641  C     0.66750   0.21220   0.82855   0.00000  Uiso   1.00
O3642  O     0.58250   0.21220   0.82855   0.00000  Uiso   1.00
C3643  C     0.54479   0.00736   0.99097   0.00000  Uiso   1.00
C3644  C     0.70750   0.03780   0.95355   0.00000  Uiso   1.00
O3645  O     0.54250   0.03780   0.95355   0.00000  Uiso   1.00
C3646  C     0.66979   0.13236   0.86597   0.00000  Uiso   1.00
C3647  C     0.58250   0.16280   0.82855   0.00000  Uiso   1.00
O3648  O     0.66750   0.16280   0.82855   0.00000  Uiso   1.00
Al3649 Al    0.56250   0.06250   0.93750   0.00000  Uiso   1.00
Al3650 Al    0.68750   0.06250   0.93750   0.00000  Uiso   1.00
Al3651 Al    0.68750   0.18750   0.81250   0.00000  Uiso   1.00
Al3652 Al    0.56250   0.18750   0.81250   0.00000  Uiso   1.00
O3653  O     0.50000   0.06250   0.91824   0.00000  Uiso   1.00
O3654  O     0.62500   0.18750   0.79325   0.00000  Uiso   1.00
O3655  O     0.50000   0.18750   0.83176   0.00000  Uiso   1.00
O3656  O     0.62500   0.06250   0.95676   0.00000  Uiso   1.00
C3657  C     0.50000   0.01472   0.98192   0.00000  Uiso   1.00
C3658  C     0.50000   0.03082   0.96212   0.00000  Uiso   1.00
C3659  C     0.62500   0.13972   0.85693   0.00000  Uiso   1.00
C3660  C     0.62500   0.15582   0.83712   0.00000  Uiso   1.00
C3661  C     0.50000   0.11028   0.98192   0.00000  Uiso   1.00
C3662  C     0.50000   0.09418   0.96212   0.00000  Uiso   1.00
C3663  C     0.62500   0.23528   0.85693   0.00000  Uiso   1.00
C3664  C     0.62500   0.21917   0.83712   0.00000  Uiso   1.00
C3665  C     0.50000   0.13972   0.76808   0.00000  Uiso   1.00
C3666  C     0.50000   0.15582   0.78788   0.00000  Uiso   1.00
C3667  C     0.62500   0.01472   0.89308   0.00000  Uiso   1.00
C3668  C     0.62500   0.03082   0.91287   0.00000  Uiso   1.00
C3669  C     0.50000   0.23528   0.76808   0.00000  Uiso   1.00
C3670  C     0.50000   0.21917   0.78788   0.00000  Uiso   1.00
C3671  C     0.62500   0.11028   0.89308   0.00000  Uiso   1.00
C3672  C     0.62500   0.09418   0.91287   0.00000  Uiso   1.00
C3673  C     0.95521   0.00736   0.99097   0.00000  Uiso   1.00
C3674  C     0.79250   0.03780   0.95355   0.00000  Uiso   1.00
O3675  O     0.95750   0.03780   0.95355   0.00000  Uiso   1.00
C3676  C     0.83021   0.13236   0.86597   0.00000  Uiso   1.00
C3677  C     0.91750   0.16280   0.82855   0.00000  Uiso   1.00
O3678  O     0.83250   0.16280   0.82855   0.00000  Uiso   1.00
C3679  C     0.79479   0.11764   0.99097   0.00000  Uiso   1.00
C3680  C     0.95750   0.08720   0.95355   0.00000  Uiso   1.00
O3681  O     0.79250   0.08720   0.95355   0.00000  Uiso   1.00
C3682  C     0.91979   0.24264   0.86597   0.00000  Uiso   1.00
C3683  C     0.83250   0.21220   0.82855   0.00000  Uiso   1.00
O3684  O     0.91750   0.21220   0.82855   0.00000  Uiso   1.00
C3685  C     0.79479   0.13236   0.75903   0.00000  Uiso   1.00
C3686  C     0.95750   0.16280   0.79645   0.00000  Uiso   1.00
O3687  O     0.79250   0.16280   0.79645   0.00000  Uiso   1.00
C3688  C     0.91979   0.00736   0.88403   0.00000  Uiso   1.00
C3689  C     0.83250   0.03780   0.92145   0.00000  Uiso   1.00
O3690  O     0.91750   0.03780   0.92145   0.00000  Uiso   1.00
C3691  C     0.95521   0.24264   0.75903   0.00000  Uiso   1.00
C3692  C     0.79250   0.21220   0.79645   0.00000  Uiso   1.00
O3693  O     0.95750   0.21220   0.79645   0.00000  Uiso   1.00
C3694  C     0.83021   0.11764   0.88403   0.00000  Uiso   1.00
C3695  C     0.91750   0.08720   0.92145   0.00000  Uiso   1.00
O3696  O     0.83250   0.08720   0.92145   0.00000  Uiso   1.00
C3697  C     0.79479   0.24264   0.75903   0.00000  Uiso   1.00
C3698  C     0.95750   0.21220   0.79645   0.00000  Uiso   1.00
O3699  O     0.79250   0.21220   0.79645   0.00000  Uiso   1.00
C3700  C     0.91979   0.11764   0.88403   0.00000  Uiso   1.00
C3701  C     0.83250   0.08720   0.92145   0.00000  Uiso   1.00
O3702  O     0.91750   0.08720   0.92145   0.00000  Uiso   1.00
C3703  C     0.95521   0.13236   0.75903   0.00000  Uiso   1.00
C3704  C     0.79250   0.16280   0.79645   0.00000  Uiso   1.00
O3705  O     0.95750   0.16280   0.79645   0.00000  Uiso   1.00
C3706  C     0.83021   0.00736   0.88403   0.00000  Uiso   1.00
C3707  C     0.91750   0.03780   0.92145   0.00000  Uiso   1.00
O3708  O     0.83250   0.03780   0.92145   0.00000  Uiso   1.00
C3709  C     0.95521   0.11764   0.99097   0.00000  Uiso   1.00
C3710  C     0.79250   0.08720   0.95355   0.00000  Uiso   1.00
O3711  O     0.95750   0.08720   0.95355   0.00000  Uiso   1.00
C3712  C     0.83021   0.24264   0.86597   0.00000  Uiso   1.00
C3713  C     0.91750   0.21220   0.82855   0.00000  Uiso   1.00
O3714  O     0.83250   0.21220   0.82855   0.00000  Uiso   1.00
C3715  C     0.79479   0.00736   0.99097   0.00000  Uiso   1.00
C3716  C     0.95750   0.03780   0.95355   0.00000  Uiso   1.00
O3717  O     0.79250   0.03780   0.95355   0.00000  Uiso   1.00
C3718  C     0.91979   0.13236   0.86597   0.00000  Uiso   1.00
C3719  C     0.83250   0.16280   0.82855   0.00000  Uiso   1.00
O3720  O     0.91750   0.16280   0.82855   0.00000  Uiso   1.00
Al3721 Al    0.81250   0.06250   0.93750   0.00000  Uiso   1.00
Al3722 Al    0.93750   0.06250   0.93750   0.00000  Uiso   1.00
Al3723 Al    0.93750   0.18750   0.81250   0.00000  Uiso   1.00
Al3724 Al    0.81250   0.18750   0.81250   0.00000  Uiso   1.00
O3725  O     0.75000   0.06250   0.91824   0.00000  Uiso   1.00
O3726  O     0.87500   0.18750   0.79325   0.00000  Uiso   1.00
O3727  O     0.75000   0.18750   0.83176   0.00000  Uiso   1.00
O3728  O     0.87500   0.06250   0.95676   0.00000  Uiso   1.00
C3729  C     0.75000   0.01472   0.98192   0.00000  Uiso   1.00
C3730  C     0.75000   0.03082   0.96212   0.00000  Uiso   1.00
C3731  C     0.87500   0.13972   0.85693   0.00000  Uiso   1.00
C3732  C     0.87500   0.15582   0.83712   0.00000  Uiso   1.00
C3733  C     0.75000   0.11028   0.98192   0.00000  Uiso   1.00
C3734  C     0.75000   0.09418   0.96212   0.00000  Uiso   1.00
C3735  C     0.87500   0.23528   0.85693   0.00000  Uiso   1.00
C3736  C     0.87500   0.21917   0.83712   0.00000  Uiso   1.00
C3737  C     0.75000   0.13972   0.76808   0.00000  Uiso   1.00
C3738  C     0.75000   0.15582   0.78788   0.00000  Uiso   1.00
C3739  C     0.87500   0.01472   0.89308   0.00000  Uiso   1.00
C3740  C     0.87500   0.03082   0.91287   0.00000  Uiso   1.00
C3741  C     0.75000   0.23528   0.76808   0.00000  Uiso   1.00
C3742  C     0.75000   0.21917   0.78788   0.00000  Uiso   1.00
C3743  C     0.87500   0.11028   0.89308   0.00000  Uiso   1.00
C3744  C     0.87500   0.09418   0.91287   0.00000  Uiso   1.00
C3745  C     0.20521   0.25736   0.99097   0.00000  Uiso   1.00
C3746  C     0.04250   0.28780   0.95355   0.00000  Uiso   1.00
O3747  O     0.20750   0.28780   0.95355   0.00000  Uiso   1.00
C3748  C     0.08021   0.38236   0.86597   0.00000  Uiso   1.00
C3749  C     0.16750   0.41280   0.82855   0.00000  Uiso   1.00
O3750  O     0.08250   0.41280   0.82855   0.00000  Uiso   1.00
C3751  C     0.04479   0.36764   0.99097   0.00000  Uiso   1.00
C3752  C     0.20750   0.33720   0.95355   0.00000  Uiso   1.00
O3753  O     0.04250   0.33720   0.95355   0.00000  Uiso   1.00
C3754  C     0.16979   0.49264   0.86597   0.00000  Uiso   1.00
C3755  C     0.08250   0.46220   0.82855   0.00000  Uiso   1.00
O3756  O     0.16750   0.46220   0.82855   0.00000  Uiso   1.00
C3757  C     0.04479   0.38236   0.75903   0.00000  Uiso   1.00
C3758  C     0.20750   0.41280   0.79645   0.00000  Uiso   1.00
O3759  O     0.04250   0.41280   0.79645   0.00000  Uiso   1.00
C3760  C     0.16979   0.25736   0.88403   0.00000  Uiso   1.00
C3761  C     0.08250   0.28780   0.92145   0.00000  Uiso   1.00
O3762  O     0.16750   0.28780   0.92145   0.00000  Uiso   1.00
C3763  C     0.20521   0.49264   0.75903   0.00000  Uiso   1.00
C3764  C     0.04250   0.46220   0.79645   0.00000  Uiso   1.00
O3765  O     0.20750   0.46220   0.79645   0.00000  Uiso   1.00
C3766  C     0.08021   0.36764   0.88403   0.00000  Uiso   1.00
C3767  C     0.16750   0.33720   0.92145   0.00000  Uiso   1.00
O3768  O     0.08250   0.33720   0.92145   0.00000  Uiso   1.00
C3769  C     0.04479   0.49264   0.75903   0.00000  Uiso   1.00
C3770  C     0.20750   0.46220   0.79645   0.00000  Uiso   1.00
O3771  O     0.04250   0.46220   0.79645   0.00000  Uiso   1.00
C3772  C     0.16979   0.36764   0.88403   0.00000  Uiso   1.00
C3773  C     0.08250   0.33720   0.92145   0.00000  Uiso   1.00
O3774  O     0.16750   0.33720   0.92145   0.00000  Uiso   1.00
C3775  C     0.20521   0.38236   0.75903   0.00000  Uiso   1.00
C3776  C     0.04250   0.41280   0.79645   0.00000  Uiso   1.00
O3777  O     0.20750   0.41280   0.79645   0.00000  Uiso   1.00
C3778  C     0.08021   0.25736   0.88403   0.00000  Uiso   1.00
C3779  C     0.16750   0.28780   0.92145   0.00000  Uiso   1.00
O3780  O     0.08250   0.28780   0.92145   0.00000  Uiso   1.00
C3781  C     0.20521   0.36764   0.99097   0.00000  Uiso   1.00
C3782  C     0.04250   0.33720   0.95355   0.00000  Uiso   1.00
O3783  O     0.20750   0.33720   0.95355   0.00000  Uiso   1.00
C3784  C     0.08021   0.49264   0.86597   0.00000  Uiso   1.00
C3785  C     0.16750   0.46220   0.82855   0.00000  Uiso   1.00
O3786  O     0.08250   0.46220   0.82855   0.00000  Uiso   1.00
C3787  C     0.04479   0.25736   0.99097   0.00000  Uiso   1.00
C3788  C     0.20750   0.28780   0.95355   0.00000  Uiso   1.00
O3789  O     0.04250   0.28780   0.95355   0.00000  Uiso   1.00
C3790  C     0.16979   0.38236   0.86597   0.00000  Uiso   1.00
C3791  C     0.08250   0.41280   0.82855   0.00000  Uiso   1.00
O3792  O     0.16750   0.41280   0.82855   0.00000  Uiso   1.00
Al3793 Al    0.06250   0.31250   0.93750   0.00000  Uiso   1.00
Al3794 Al    0.18750   0.31250   0.93750   0.00000  Uiso   1.00
Al3795 Al    0.18750   0.43750   0.81250   0.00000  Uiso   1.00
Al3796 Al    0.06250   0.43750   0.81250   0.00000  Uiso   1.00
O3797  O     0.00000   0.31250   0.91824   0.00000  Uiso   1.00
O3798  O     0.12500   0.43750   0.79325   0.00000  Uiso   1.00
O3799  O     0.00000   0.43750   0.83176   0.00000  Uiso   1.00
O3800  O     0.12500   0.31250   0.95676   0.00000  Uiso   1.00
C3801  C     0.00000   0.26472   0.98192   0.00000  Uiso   1.00
C3802  C     0.00000   0.28082   0.96212   0.00000  Uiso   1.00
C3803  C     0.12500   0.38972   0.85693   0.00000  Uiso   1.00
C3804  C     0.12500   0.40582   0.83712   0.00000  Uiso   1.00
C3805  C     0.00000   0.36028   0.98192   0.00000  Uiso   1.00
C3806  C     0.00000   0.34417   0.96212   0.00000  Uiso   1.00
C3807  C     0.12500   0.48528   0.85693   0.00000  Uiso   1.00
C3808  C     0.12500   0.46917   0.83712   0.00000  Uiso   1.00
C3809  C     0.00000   0.38972   0.76808   0.00000  Uiso   1.00
C3810  C     0.00000   0.40582   0.78788   0.00000  Uiso   1.00
C3811  C     0.12500   0.26472   0.89308   0.00000  Uiso   1.00
C3812  C     0.12500   0.28082   0.91287   0.00000  Uiso   1.00
C3813  C     0.00000   0.48528   0.76808   0.00000  Uiso   1.00
C3814  C     0.00000   0.46917   0.78788   0.00000  Uiso   1.00
C3815  C     0.12500   0.36028   0.89308   0.00000  Uiso   1.00
C3816  C     0.12500   0.34417   0.91287   0.00000  Uiso   1.00
C3817  C     0.45521   0.25736   0.99097   0.00000  Uiso   1.00
C3818  C     0.29250   0.28780   0.95355   0.00000  Uiso   1.00
O3819  O     0.45750   0.28780   0.95355   0.00000  Uiso   1.00
C3820  C     0.33021   0.38236   0.86597   0.00000  Uiso   1.00
C3821  C     0.41750   0.41280   0.82855   0.00000  Uiso   1.00
O3822  O     0.33250   0.41280   0.82855   0.00000  Uiso   1.00
C3823  C     0.29479   0.36764   0.99097   0.00000  Uiso   1.00
C3824  C     0.45750   0.33720   0.95355   0.00000  Uiso   1.00
O3825  O     0.29250   0.33720   0.95355   0.00000  Uiso   1.00
C3826  C     0.41979   0.49264   0.86597   0.00000  Uiso   1.00
C3827  C     0.33250   0.46220   0.82855   0.00000  Uiso   1.00
O3828  O     0.41750   0.46220   0.82855   0.00000  Uiso   1.00
C3829  C     0.29479   0.38236   0.75903   0.00000  Uiso   1.00
C3830  C     0.45750   0.41280   0.79645   0.00000  Uiso   1.00
O3831  O     0.29250   0.41280   0.79645   0.00000  Uiso   1.00
C3832  C     0.41979   0.25736   0.88403   0.00000  Uiso   1.00
C3833  C     0.33250   0.28780   0.92145   0.00000  Uiso   1.00
O3834  O     0.41750   0.28780   0.92145   0.00000  Uiso   1.00
C3835  C     0.45521   0.49264   0.75903   0.00000  Uiso   1.00
C3836  C     0.29250   0.46220   0.79645   0.00000  Uiso   1.00
O3837  O     0.45750   0.46220   0.79645   0.00000  Uiso   1.00
C3838  C     0.33021   0.36764   0.88403   0.00000  Uiso   1.00
C3839  C     0.41750   0.33720   0.92145   0.00000  Uiso   1.00
O3840  O     0.33250   0.33720   0.92145   0.00000  Uiso   1.00
C3841  C     0.29479   0.49264   0.75903   0.00000  Uiso   1.00
C3842  C     0.45750   0.46220   0.79645   0.00000  Uiso   1.00
O3843  O     0.29250   0.46220   0.79645   0.00000  Uiso   1.00
C3844  C     0.41979   0.36764   0.88403   0.00000  Uiso   1.00
C3845  C     0.33250   0.33720   0.92145   0.00000  Uiso   1.00
O3846  O     0.41750   0.33720   0.92145   0.00000  Uiso   1.00
C3847  C     0.45521   0.38236   0.75903   0.00000  Uiso   1.00
C3848  C     0.29250   0.41280   0.79645   0.00000  Uiso   1.00
O3849  O     0.45750   0.41280   0.79645   0.00000  Uiso   1.00
C3850  C     0.33021   0.25736   0.88403   0.00000  Uiso   1.00
C3851  C     0.41750   0.28780   0.92145   0.00000  Uiso   1.00
O3852  O     0.33250   0.28780   0.92145   0.00000  Uiso   1.00
C3853  C     0.45521   0.36764   0.99097   0.00000  Uiso   1.00
C3854  C     0.29250   0.33720   0.95355   0.00000  Uiso   1.00
O3855  O     0.45750   0.33720   0.95355   0.00000  Uiso   1.00
C3856  C     0.33021   0.49264   0.86597   0.00000  Uiso   1.00
C3857  C     0.41750   0.46220   0.82855   0.00000  Uiso   1.00
O3858  O     0.33250   0.46220   0.82855   0.00000  Uiso   1.00
C3859  C     0.29479   0.25736   0.99097   0.00000  Uiso   1.00
C3860  C     0.45750   0.28780   0.95355   0.00000  Uiso   1.00
O3861  O     0.29250   0.28780   0.95355   0.00000  Uiso   1.00
C3862  C     0.41979   0.38236   0.86597   0.00000  Uiso   1.00
C3863  C     0.33250   0.41280   0.82855   0.00000  Uiso   1.00
O3864  O     0.41750   0.41280   0.82855   0.00000  Uiso   1.00
Al3865 Al    0.31250   0.31250   0.93750   0.00000  Uiso   1.00
Al3866 Al    0.43750   0.31250   0.93750   0.00000  Uiso   1.00
Al3867 Al    0.43750   0.43750   0.81250   0.00000  Uiso   1.00
Al3868 Al    0.31250   0.43750   0.81250   0.00000  Uiso   1.00
O3869  O     0.25000   0.31250   0.91824   0.00000  Uiso   1.00
O3870  O     0.37500   0.43750   0.79325   0.00000  Uiso   1.00
O3871  O     0.25000   0.43750   0.83176   0.00000  Uiso   1.00
O3872  O     0.37500   0.31250   0.95676   0.00000  Uiso   1.00
C3873  C     0.25000   0.26472   0.98192   0.00000  Uiso   1.00
C3874  C     0.25000   0.28082   0.96212   0.00000  Uiso   1.00
C3875  C     0.37500   0.38972   0.85693   0.00000  Uiso   1.00
C3876  C     0.37500   0.40582   0.83712   0.00000  Uiso   1.00
C3877  C     0.25000   0.36028   0.98192   0.00000  Uiso   1.00
C3878  C     0.25000   0.34417   0.96212   0.00000  Uiso   1.00
C3879  C     0.37500   0.48528   0.85693   0.00000  Uiso   1.00
C3880  C     0.37500   0.46917   0.83712   0.00000  Uiso   1.00
C3881  C     0.25000   0.38972   0.76808   0.00000  Uiso   1.00
C3882  C     0.25000   0.40582   0.78788   0.00000  Uiso   1.00
C3883  C     0.37500   0.26472   0.89308   0.00000  Uiso   1.00
C3884  C     0.37500   0.28082   0.91287   0.00000  Uiso   1.00
C3885  C     0.25000   0.48528   0.76808   0.00000  Uiso   1.00
C3886  C     0.25000   0.46917   0.78788   0.00000  Uiso   1.00
C3887  C     0.37500   0.36028   0.89308   0.00000  Uiso   1.00
C3888  C     0.37500   0.34417   0.91287   0.00000  Uiso   1.00
C3889  C     0.70521   0.25736   0.99097   0.00000  Uiso   1.00
C3890  C     0.54250   0.28780   0.95355   0.00000  Uiso   1.00
O3891  O     0.70750   0.28780   0.95355   0.00000  Uiso   1.00
C3892  C     0.58021   0.38236   0.86597   0.00000  Uiso   1.00
C3893  C     0.66750   0.41280   0.82855   0.00000  Uiso   1.00
O3894  O     0.58250   0.41280   0.82855   0.00000  Uiso   1.00
C3895  C     0.54479   0.36764   0.99097   0.00000  Uiso   1.00
C3896  C     0.70750   0.33720   0.95355   0.00000  Uiso   1.00
O3897  O     0.54250   0.33720   0.95355   0.00000  Uiso   1.00
C3898  C     0.66979   0.49264   0.86597   0.00000  Uiso   1.00
C3899  C     0.58250   0.46220   0.82855   0.00000  Uiso   1.00
O3900  O     0.66750   0.46220   0.82855   0.00000  Uiso   1.00
C3901  C     0.54479   0.38236   0.75903   0.00000  Uiso   1.00
C3902  C     0.70750   0.41280   0.79645   0.00000  Uiso   1.00
O3903  O     0.54250   0.41280   0.79645   0.00000  Uiso   1.00
C3904  C     0.66979   0.25736   0.88403   0.00000  Uiso   1.00
C3905  C     0.58250   0.28780   0.92145   0.00000  Uiso   1.00
O3906  O     0.66750   0.28780   0.92145   0.00000  Uiso   1.00
C3907  C     0.70521   0.49264   0.75903   0.00000  Uiso   1.00
C3908  C     0.54250   0.46220   0.79645   0.00000  Uiso   1.00
O3909  O     0.70750   0.46220   0.79645   0.00000  Uiso   1.00
C3910  C     0.58021   0.36764   0.88403   0.00000  Uiso   1.00
C3911  C     0.66750   0.33720   0.92145   0.00000  Uiso   1.00
O3912  O     0.58250   0.33720   0.92145   0.00000  Uiso   1.00
C3913  C     0.54479   0.49264   0.75903   0.00000  Uiso   1.00
C3914  C     0.70750   0.46220   0.79645   0.00000  Uiso   1.00
O3915  O     0.54250   0.46220   0.79645   0.00000  Uiso   1.00
C3916  C     0.66979   0.36764   0.88403   0.00000  Uiso   1.00
C3917  C     0.58250   0.33720   0.92145   0.00000  Uiso   1.00
O3918  O     0.66750   0.33720   0.92145   0.00000  Uiso   1.00
C3919  C     0.70521   0.38236   0.75903   0.00000  Uiso   1.00
C3920  C     0.54250   0.41280   0.79645   0.00000  Uiso   1.00
O3921  O     0.70750   0.41280   0.79645   0.00000  Uiso   1.00
C3922  C     0.58021   0.25736   0.88403   0.00000  Uiso   1.00
C3923  C     0.66750   0.28780   0.92145   0.00000  Uiso   1.00
O3924  O     0.58250   0.28780   0.92145   0.00000  Uiso   1.00
C3925  C     0.70521   0.36764   0.99097   0.00000  Uiso   1.00
C3926  C     0.54250   0.33720   0.95355   0.00000  Uiso   1.00
O3927  O     0.70750   0.33720   0.95355   0.00000  Uiso   1.00
C3928  C     0.58021   0.49264   0.86597   0.00000  Uiso   1.00
C3929  C     0.66750   0.46220   0.82855   0.00000  Uiso   1.00
O3930  O     0.58250   0.46220   0.82855   0.00000  Uiso   1.00
C3931  C     0.54479   0.25736   0.99097   0.00000  Uiso   1.00
C3932  C     0.70750   0.28780   0.95355   0.00000  Uiso   1.00
O3933  O     0.54250   0.28780   0.95355   0.00000  Uiso   1.00
C3934  C     0.66979   0.38236   0.86597   0.00000  Uiso   1.00
C3935  C     0.58250   0.41280   0.82855   0.00000  Uiso   1.00
O3936  O     0.66750   0.41280   0.82855   0.00000  Uiso   1.00
Al3937 Al    0.56250   0.31250   0.93750   0.00000  Uiso   1.00
Al3938 Al    0.68750   0.31250   0.93750   0.00000  Uiso   1.00
Al3939 Al    0.68750   0.43750   0.81250   0.00000  Uiso   1.00
Al3940 Al    0.56250   0.43750   0.81250   0.00000  Uiso   1.00
O3941  O     0.50000   0.31250   0.91824   0.00000  Uiso   1.00
O3942  O     0.62500   0.43750   0.79325   0.00000  Uiso   1.00
O3943  O     0.50000   0.43750   0.83176   0.00000  Uiso   1.00
O3944  O     0.62500   0.31250   0.95676   0.00000  Uiso   1.00
C3945  C     0.50000   0.26472   0.98192   0.00000  Uiso   1.00
C3946  C     0.50000   0.28082   0.96212   0.00000  Uiso   1.00
C3947  C     0.62500   0.38972   0.85693   0.00000  Uiso   1.00
C3948  C     0.62500   0.40582   0.83712   0.00000  Uiso   1.00
C3949  C     0.50000   0.36028   0.98192   0.00000  Uiso   1.00
C3950  C     0.50000   0.34417   0.96212   0.00000  Uiso   1.00
C3951  C     0.62500   0.48528   0.85693   0.00000  Uiso   1.00
C3952  C     0.62500   0.46917   0.83712   0.00000  Uiso   1.00
C3953  C     0.50000   0.38972   0.76808   0.00000  Uiso   1.00
C3954  C     0.50000   0.40582   0.78788   0.00000  Uiso   1.00
C3955  C     0.62500   0.26472   0.89308   0.00000  Uiso   1.00
C3956  C     0.62500   0.28082   0.91287   0.00000  Uiso   1.00
C3957  C     0.50000   0.48528   0.76808   0.00000  Uiso   1.00
C3958  C     0.50000   0.46917   0.78788   0.00000  Uiso   1.00
C3959  C     0.62500   0.36028   0.89308   0.00000  Uiso   1.00
C3960  C     0.62500   0.34417   0.91287   0.00000  Uiso   1.00
C3961  C     0.95521   0.25736   0.99097   0.00000  Uiso   1.00
C3962  C     0.79250   0.28780   0.95355   0.00000  Uiso   1.00
O3963  O     0.95750   0.28780   0.95355   0.00000  Uiso   1.00
C3964  C     0.83021   0.38236   0.86597   0.00000  Uiso   1.00
C3965  C     0.91750   0.41280   0.82855   0.00000  Uiso   1.00
O3966  O     0.83250   0.41280   0.82855   0.00000  Uiso   1.00
C3967  C     0.79479   0.36764   0.99097   0.00000  Uiso   1.00
C3968  C     0.95750   0.33720   0.95355   0.00000  Uiso   1.00
O3969  O     0.79250   0.33720   0.95355   0.00000  Uiso   1.00
C3970  C     0.91979   0.49264   0.86597   0.00000  Uiso   1.00
C3971  C     0.83250   0.46220   0.82855   0.00000  Uiso   1.00
O3972  O     0.91750   0.46220   0.82855   0.00000  Uiso   1.00
C3973  C     0.79479   0.38236   0.75903   0.00000  Uiso   1.00
C3974  C     0.95750   0.41280   0.79645   0.00000  Uiso   1.00
O3975  O     0.79250   0.41280   0.79645   0.00000  Uiso   1.00
C3976  C     0.91979   0.25736   0.88403   0.00000  Uiso   1.00
C3977  C     0.83250   0.28780   0.92145   0.00000  Uiso   1.00
O3978  O     0.91750   0.28780   0.92145   0.00000  Uiso   1.00
C3979  C     0.95521   0.49264   0.75903   0.00000  Uiso   1.00
C3980  C     0.79250   0.46220   0.79645   0.00000  Uiso   1.00
O3981  O     0.95750   0.46220   0.79645   0.00000  Uiso   1.00
C3982  C     0.83021   0.36764   0.88403   0.00000  Uiso   1.00
C3983  C     0.91750   0.33720   0.92145   0.00000  Uiso   1.00
O3984  O     0.83250   0.33720   0.92145   0.00000  Uiso   1.00
C3985  C     0.79479   0.49264   0.75903   0.00000  Uiso   1.00
C3986  C     0.95750   0.46220   0.79645   0.00000  Uiso   1.00
O3987  O     0.79250   0.46220   0.79645   0.00000  Uiso   1.00
C3988  C     0.91979   0.36764   0.88403   0.00000  Uiso   1.00
C3989  C     0.83250   0.33720   0.92145   0.00000  Uiso   1.00
O3990  O     0.91750   0.33720   0.92145   0.00000  Uiso   1.00
C3991  C     0.95521   0.38236   0.75903   0.00000  Uiso   1.00
C3992  C     0.79250   0.41280   0.79645   0.00000  Uiso   1.00
O3993  O     0.95750   0.41280   0.79645   0.00000  Uiso   1.00
C3994  C     0.83021   0.25736   0.88403   0.00000  Uiso   1.00
C3995  C     0.91750   0.28780   0.92145   0.00000  Uiso   1.00
O3996  O     0.83250   0.28780   0.92145   0.00000  Uiso   1.00
C3997  C     0.95521   0.36764   0.99097   0.00000  Uiso   1.00
C3998  C     0.79250   0.33720   0.95355   0.00000  Uiso   1.00
O3999  O     0.95750   0.33720   0.95355   0.00000  Uiso   1.00
C4000  C     0.83021   0.49264   0.86597   0.00000  Uiso   1.00
C4001  C     0.91750   0.46220   0.82855   0.00000  Uiso   1.00
O4002  O     0.83250   0.46220   0.82855   0.00000  Uiso   1.00
C4003  C     0.79479   0.25736   0.99097   0.00000  Uiso   1.00
C4004  C     0.95750   0.28780   0.95355   0.00000  Uiso   1.00
O4005  O     0.79250   0.28780   0.95355   0.00000  Uiso   1.00
C4006  C     0.91979   0.38236   0.86597   0.00000  Uiso   1.00
C4007  C     0.83250   0.41280   0.82855   0.00000  Uiso   1.00
O4008  O     0.91750   0.41280   0.82855   0.00000  Uiso   1.00
Al4009 Al    0.81250   0.31250   0.93750   0.00000  Uiso   1.00
Al4010 Al    0.93750   0.31250   0.93750   0.00000  Uiso   1.00
Al4011 Al    0.93750   0.43750   0.81250   0.00000  Uiso   1.00
Al4012 Al    0.81250   0.43750   0.81250   0.00000  Uiso   1.00
O4013  O     0.75000   0.31250   0.91824   0.00000  Uiso   1.00
O4014  O     0.87500   0.43750   0.79325   0.00000  Uiso   1.00
O4015  O     0.75000   0.43750   0.83176   0.00000  Uiso   1.00
O4016  O     0.87500   0.31250   0.95676   0.00000  Uiso   1.00
C4017  C     0.75000   0.26472   0.98192   0.00000  Uiso   1.00
C4018  C     0.75000   0.28082   0.96212   0.00000  Uiso   1.00
C4019  C     0.87500   0.38972   0.85693   0.00000  Uiso   1.00
C4020  C     0.87500   0.40582   0.83712   0.00000  Uiso   1.00
C4021  C     0.75000   0.36028   0.98192   0.00000  Uiso   1.00
C4022  C     0.75000   0.34417   0.96212   0.00000  Uiso   1.00
C4023  C     0.87500   0.48528   0.85693   0.00000  Uiso   1.00
C4024  C     0.87500   0.46917   0.83712   0.00000  Uiso   1.00
C4025  C     0.75000   0.38972   0.76808   0.00000  Uiso   1.00
C4026  C     0.75000   0.40582   0.78788   0.00000  Uiso   1.00
C4027  C     0.87500   0.26472   0.89308   0.00000  Uiso   1.00
C4028  C     0.87500   0.28082   0.91287   0.00000  Uiso   1.00
C4029  C     0.75000   0.48528   0.76808   0.00000  Uiso   1.00
C4030  C     0.75000   0.46917   0.78788   0.00000  Uiso   1.00
C4031  C     0.87500   0.36028   0.89308   0.00000  Uiso   1.00
C4032  C     0.87500   0.34417   0.91287   0.00000  Uiso   1.00
C4033  C     0.20521   0.50736   0.99097   0.00000  Uiso   1.00
C4034  C     0.04250   0.53780   0.95355   0.00000  Uiso   1.00
O4035  O     0.20750   0.53780   0.95355   0.00000  Uiso   1.00
C4036  C     0.08021   0.63236   0.86597   0.00000  Uiso   1.00
C4037  C     0.16750   0.66280   0.82855   0.00000  Uiso   1.00
O4038  O     0.08250   0.66280   0.82855   0.00000  Uiso   1.00
C4039  C     0.04479   0.61764   0.99097   0.00000  Uiso   1.00
C4040  C     0.20750   0.58720   0.95355   0.00000  Uiso   1.00
O4041  O     0.04250   0.58720   0.95355   0.00000  Uiso   1.00
C4042  C     0.16979   0.74264   0.86597   0.00000  Uiso   1.00
C4043  C     0.08250   0.71220   0.82855   0.00000  Uiso   1.00
O4044  O     0.16750   0.71220   0.82855   0.00000  Uiso   1.00
C4045  C     0.04479   0.63236   0.75903   0.00000  Uiso   1.00
C4046  C     0.20750   0.66280   0.79645   0.00000  Uiso   1.00
O4047  O     0.04250   0.66280   0.79645   0.00000  Uiso   1.00
C4048  C     0.16979   0.50736   0.88403   0.00000  Uiso   1.00
C4049  C     0.08250   0.53780   0.92145   0.00000  Uiso   1.00
O4050  O     0.16750   0.53780   0.92145   0.00000  Uiso   1.00
C4051  C     0.20521   0.74264   0.75903   0.00000  Uiso   1.00
C4052  C     0.04250   0.71220   0.79645   0.00000  Uiso   1.00
O4053  O     0.20750   0.71220   0.79645   0.00000  Uiso   1.00
C4054  C     0.08021   0.61764   0.88403   0.00000  Uiso   1.00
C4055  C     0.16750   0.58720   0.92145   0.00000  Uiso   1.00
O4056  O     0.08250   0.58720   0.92145   0.00000  Uiso   1.00
C4057  C     0.04479   0.74264   0.75903   0.00000  Uiso   1.00
C4058  C     0.20750   0.71220   0.79645   0.00000  Uiso   1.00
O4059  O     0.04250   0.71220   0.79645   0.00000  Uiso   1.00
C4060  C     0.16979   0.61764   0.88403   0.00000  Uiso   1.00
C4061  C     0.08250   0.58720   0.92145   0.00000  Uiso   1.00
O4062  O     0.16750   0.58720   0.92145   0.00000  Uiso   1.00
C4063  C     0.20521   0.63236   0.75903   0.00000  Uiso   1.00
C4064  C     0.04250   0.66280   0.79645   0.00000  Uiso   1.00
O4065  O     0.20750   0.66280   0.79645   0.00000  Uiso   1.00
C4066  C     0.08021   0.50736   0.88403   0.00000  Uiso   1.00
C4067  C     0.16750   0.53780   0.92145   0.00000  Uiso   1.00
O4068  O     0.08250   0.53780   0.92145   0.00000  Uiso   1.00
C4069  C     0.20521   0.61764   0.99097   0.00000  Uiso   1.00
C4070  C     0.04250   0.58720   0.95355   0.00000  Uiso   1.00
O4071  O     0.20750   0.58720   0.95355   0.00000  Uiso   1.00
C4072  C     0.08021   0.74264   0.86597   0.00000  Uiso   1.00
C4073  C     0.16750   0.71220   0.82855   0.00000  Uiso   1.00
O4074  O     0.08250   0.71220   0.82855   0.00000  Uiso   1.00
C4075  C     0.04479   0.50736   0.99097   0.00000  Uiso   1.00
C4076  C     0.20750   0.53780   0.95355   0.00000  Uiso   1.00
O4077  O     0.04250   0.53780   0.95355   0.00000  Uiso   1.00
C4078  C     0.16979   0.63236   0.86597   0.00000  Uiso   1.00
C4079  C     0.08250   0.66280   0.82855   0.00000  Uiso   1.00
O4080  O     0.16750   0.66280   0.82855   0.00000  Uiso   1.00
Al4081 Al    0.06250   0.56250   0.93750   0.00000  Uiso   1.00
Al4082 Al    0.18750   0.56250   0.93750   0.00000  Uiso   1.00
Al4083 Al    0.18750   0.68750   0.81250   0.00000  Uiso   1.00
Al4084 Al    0.06250   0.68750   0.81250   0.00000  Uiso   1.00
O4085  O     0.00000   0.56250   0.91824   0.00000  Uiso   1.00
O4086  O     0.12500   0.68750   0.79325   0.00000  Uiso   1.00
O4087  O     0.00000   0.68750   0.83176   0.00000  Uiso   1.00
O4088  O     0.12500   0.56250   0.95676   0.00000  Uiso   1.00
C4089  C     0.00000   0.51472   0.98192   0.00000  Uiso   1.00
C4090  C     0.00000   0.53082   0.96212   0.00000  Uiso   1.00
C4091  C     0.12500   0.63972   0.85693   0.00000  Uiso   1.00
C4092  C     0.12500   0.65582   0.83712   0.00000  Uiso   1.00
C4093  C     0.00000   0.61028   0.98192   0.00000  Uiso   1.00
C4094  C     0.00000   0.59418   0.96212   0.00000  Uiso   1.00
C4095  C     0.12500   0.73528   0.85693   0.00000  Uiso   1.00
C4096  C     0.12500   0.71917   0.83712   0.00000  Uiso   1.00
C4097  C     0.00000   0.63972   0.76808   0.00000  Uiso   1.00
C4098  C     0.00000   0.65582   0.78788   0.00000  Uiso   1.00
C4099  C     0.12500   0.51472   0.89308   0.00000  Uiso   1.00
C4100  C     0.12500   0.53082   0.91287   0.00000  Uiso   1.00
C4101  C     0.00000   0.73528   0.76808   0.00000  Uiso   1.00
C4102  C     0.00000   0.71917   0.78788   0.00000  Uiso   1.00
C4103  C     0.12500   0.61028   0.89308   0.00000  Uiso   1.00
C4104  C     0.12500   0.59418   0.91287   0.00000  Uiso   1.00
C4105  C     0.45521   0.50736   0.99097   0.00000  Uiso   1.00
C4106  C     0.29250   0.53780   0.95355   0.00000  Uiso   1.00
O4107  O     0.45750   0.53780   0.95355   0.00000  Uiso   1.00
C4108  C     0.33021   0.63236   0.86597   0.00000  Uiso   1.00
C4109  C     0.41750   0.66280   0.82855   0.00000  Uiso   1.00
O4110  O     0.33250   0.66280   0.82855   0.00000  Uiso   1.00
C4111  C     0.29479   0.61764   0.99097   0.00000  Uiso   1.00
C4112  C     0.45750   0.58720   0.95355   0.00000  Uiso   1.00
O4113  O     0.29250   0.58720   0.95355   0.00000  Uiso   1.00
C4114  C     0.41979   0.74264   0.86597   0.00000  Uiso   1.00
C4115  C     0.33250   0.71220   0.82855   0.00000  Uiso   1.00
O4116  O     0.41750   0.71220   0.82855   0.00000  Uiso   1.00
C4117  C     0.29479   0.63236   0.75903   0.00000  Uiso   1.00
C4118  C     0.45750   0.66280   0.79645   0.00000  Uiso   1.00
O4119  O     0.29250   0.66280   0.79645   0.00000  Uiso   1.00
C4120  C     0.41979   0.50736   0.88403   0.00000  Uiso   1.00
C4121  C     0.33250   0.53780   0.92145   0.00000  Uiso   1.00
O4122  O     0.41750   0.53780   0.92145   0.00000  Uiso   1.00
C4123  C     0.45521   0.74264   0.75903   0.00000  Uiso   1.00
C4124  C     0.29250   0.71220   0.79645   0.00000  Uiso   1.00
O4125  O     0.45750   0.71220   0.79645   0.00000  Uiso   1.00
C4126  C     0.33021   0.61764   0.88403   0.00000  Uiso   1.00
C4127  C     0.41750   0.58720   0.92145   0.00000  Uiso   1.00
O4128  O     0.33250   0.58720   0.92145   0.00000  Uiso   1.00
C4129  C     0.29479   0.74264   0.75903   0.00000  Uiso   1.00
C4130  C     0.45750   0.71220   0.79645   0.00000  Uiso   1.00
O4131  O     0.29250   0.71220   0.79645   0.00000  Uiso   1.00
C4132  C     0.41979   0.61764   0.88403   0.00000  Uiso   1.00
C4133  C     0.33250   0.58720   0.92145   0.00000  Uiso   1.00
O4134  O     0.41750   0.58720   0.92145   0.00000  Uiso   1.00
C4135  C     0.45521   0.63236   0.75903   0.00000  Uiso   1.00
C4136  C     0.29250   0.66280   0.79645   0.00000  Uiso   1.00
O4137  O     0.45750   0.66280   0.79645   0.00000  Uiso   1.00
C4138  C     0.33021   0.50736   0.88403   0.00000  Uiso   1.00
C4139  C     0.41750   0.53780   0.92145   0.00000  Uiso   1.00
O4140  O     0.33250   0.53780   0.92145   0.00000  Uiso   1.00
C4141  C     0.45521   0.61764   0.99097   0.00000  Uiso   1.00
C4142  C     0.29250   0.58720   0.95355   0.00000  Uiso   1.00
O4143  O     0.45750   0.58720   0.95355   0.00000  Uiso   1.00
C4144  C     0.33021   0.74264   0.86597   0.00000  Uiso   1.00
C4145  C     0.41750   0.71220   0.82855   0.00000  Uiso   1.00
O4146  O     0.33250   0.71220   0.82855   0.00000  Uiso   1.00
C4147  C     0.29479   0.50736   0.99097   0.00000  Uiso   1.00
C4148  C     0.45750   0.53780   0.95355   0.00000  Uiso   1.00
O4149  O     0.29250   0.53780   0.95355   0.00000  Uiso   1.00
C4150  C     0.41979   0.63236   0.86597   0.00000  Uiso   1.00
C4151  C     0.33250   0.66280   0.82855   0.00000  Uiso   1.00
O4152  O     0.41750   0.66280   0.82855   0.00000  Uiso   1.00
Al4153 Al    0.31250   0.56250   0.93750   0.00000  Uiso   1.00
Al4154 Al    0.43750   0.56250   0.93750   0.00000  Uiso   1.00
Al4155 Al    0.43750   0.68750   0.81250   0.00000  Uiso   1.00
Al4156 Al    0.31250   0.68750   0.81250   0.00000  Uiso   1.00
O4157  O     0.25000   0.56250   0.91824   0.00000  Uiso   1.00
O4158  O     0.37500   0.68750   0.79325   0.00000  Uiso   1.00
O4159  O     0.25000   0.68750   0.83176   0.00000  Uiso   1.00
O4160  O     0.37500   0.56250   0.95676   0.00000  Uiso   1.00
C4161  C     0.25000   0.51472   0.98192   0.00000  Uiso   1.00
C4162  C     0.25000   0.53082   0.96212   0.00000  Uiso   1.00
C4163  C     0.37500   0.63972   0.85693   0.00000  Uiso   1.00
C4164  C     0.37500   0.65582   0.83712   0.00000  Uiso   1.00
C4165  C     0.25000   0.61028   0.98192   0.00000  Uiso   1.00
C4166  C     0.25000   0.59418   0.96212   0.00000  Uiso   1.00
C4167  C     0.37500   0.73528   0.85693   0.00000  Uiso   1.00
C4168  C     0.37500   0.71917   0.83712   0.00000  Uiso   1.00
C4169  C     0.25000   0.63972   0.76808   0.00000  Uiso   1.00
C4170  C     0.25000   0.65582   0.78788   0.00000  Uiso   1.00
C4171  C     0.37500   0.51472   0.89308   0.00000  Uiso   1.00
C4172  C     0.37500   0.53082   0.91287   0.00000  Uiso   1.00
C4173  C     0.25000   0.73528   0.76808   0.00000  Uiso   1.00
C4174  C     0.25000   0.71917   0.78788   0.00000  Uiso   1.00
C4175  C     0.37500   0.61028   0.89308   0.00000  Uiso   1.00
C4176  C     0.37500   0.59418   0.91287   0.00000  Uiso   1.00
C4177  C     0.70521   0.50736   0.99097   0.00000  Uiso   1.00
C4178  C     0.54250   0.53780   0.95355   0.00000  Uiso   1.00
O4179  O     0.70750   0.53780   0.95355   0.00000  Uiso   1.00
C4180  C     0.58021   0.63236   0.86597   0.00000  Uiso   1.00
C4181  C     0.66750   0.66280   0.82855   0.00000  Uiso   1.00
O4182  O     0.58250   0.66280   0.82855   0.00000  Uiso   1.00
C4183  C     0.54479   0.61764   0.99097   0.00000  Uiso   1.00
C4184  C     0.70750   0.58720   0.95355   0.00000  Uiso   1.00
O4185  O     0.54250   0.58720   0.95355   0.00000  Uiso   1.00
C4186  C     0.66979   0.74264   0.86597   0.00000  Uiso   1.00
C4187  C     0.58250   0.71220   0.82855   0.00000  Uiso   1.00
O4188  O     0.66750   0.71220   0.82855   0.00000  Uiso   1.00
C4189  C     0.54479   0.63236   0.75903   0.00000  Uiso   1.00
C4190  C     0.70750   0.66280   0.79645   0.00000  Uiso   1.00
O4191  O     0.54250   0.66280   0.79645   0.00000  Uiso   1.00
C4192  C     0.66979   0.50736   0.88403   0.00000  Uiso   1.00
C4193  C     0.58250   0.53780   0.92145   0.00000  Uiso   1.00
O4194  O     0.66750   0.53780   0.92145   0.00000  Uiso   1.00
C4195  C     0.70521   0.74264   0.75903   0.00000  Uiso   1.00
C4196  C     0.54250   0.71220   0.79645   0.00000  Uiso   1.00
O4197  O     0.70750   0.71220   0.79645   0.00000  Uiso   1.00
C4198  C     0.58021   0.61764   0.88403   0.00000  Uiso   1.00
C4199  C     0.66750   0.58720   0.92145   0.00000  Uiso   1.00
O4200  O     0.58250   0.58720   0.92145   0.00000  Uiso   1.00
C4201  C     0.54479   0.74264   0.75903   0.00000  Uiso   1.00
C4202  C     0.70750   0.71220   0.79645   0.00000  Uiso   1.00
O4203  O     0.54250   0.71220   0.79645   0.00000  Uiso   1.00
C4204  C     0.66979   0.61764   0.88403   0.00000  Uiso   1.00
C4205  C     0.58250   0.58720   0.92145   0.00000  Uiso   1.00
O4206  O     0.66750   0.58720   0.92145   0.00000  Uiso   1.00
C4207  C     0.70521   0.63236   0.75903   0.00000  Uiso   1.00
C4208  C     0.54250   0.66280   0.79645   0.00000  Uiso   1.00
O4209  O     0.70750   0.66280   0.79645   0.00000  Uiso   1.00
C4210  C     0.58021   0.50736   0.88403   0.00000  Uiso   1.00
C4211  C     0.66750   0.53780   0.92145   0.00000  Uiso   1.00
O4212  O     0.58250   0.53780   0.92145   0.00000  Uiso   1.00
C4213  C     0.70521   0.61764   0.99097   0.00000  Uiso   1.00
C4214  C     0.54250   0.58720   0.95355   0.00000  Uiso   1.00
O4215  O     0.70750   0.58720   0.95355   0.00000  Uiso   1.00
C4216  C     0.58021   0.74264   0.86597   0.00000  Uiso   1.00
C4217  C     0.66750   0.71220   0.82855   0.00000  Uiso   1.00
O4218  O     0.58250   0.71220   0.82855   0.00000  Uiso   1.00
C4219  C     0.54479   0.50736   0.99097   0.00000  Uiso   1.00
C4220  C     0.70750   0.53780   0.95355   0.00000  Uiso   1.00
O4221  O     0.54250   0.53780   0.95355   0.00000  Uiso   1.00
C4222  C     0.66979   0.63236   0.86597   0.00000  Uiso   1.00
C4223  C     0.58250   0.66280   0.82855   0.00000  Uiso   1.00
O4224  O     0.66750   0.66280   0.82855   0.00000  Uiso   1.00
Al4225 Al    0.56250   0.56250   0.93750   0.00000  Uiso   1.00
Al4226 Al    0.68750   0.56250   0.93750   0.00000  Uiso   1.00
Al4227 Al    0.68750   0.68750   0.81250   0.00000  Uiso   1.00
Al4228 Al    0.56250   0.68750   0.81250   0.00000  Uiso   1.00
O4229  O     0.50000   0.56250   0.91824   0.00000  Uiso   1.00
O4230  O     0.62500   0.68750   0.79325   0.00000  Uiso   1.00
O4231  O     0.50000   0.68750   0.83176   0.00000  Uiso   1.00
O4232  O     0.62500   0.56250   0.95676   0.00000  Uiso   1.00
C4233  C     0.50000   0.51472   0.98192   0.00000  Uiso   1.00
C4234  C     0.50000   0.53082   0.96212   0.00000  Uiso   1.00
C4235  C     0.62500   0.63972   0.85693   0.00000  Uiso   1.00
C4236  C     0.62500   0.65582   0.83712   0.00000  Uiso   1.00
C4237  C     0.50000   0.61028   0.98192   0.00000  Uiso   1.00
C4238  C     0.50000   0.59418   0.96212   0.00000  Uiso   1.00
C4239  C     0.62500   0.73528   0.85693   0.00000  Uiso   1.00
C4240  C     0.62500   0.71917   0.83712   0.00000  Uiso   1.00
C4241  C     0.50000   0.63972   0.76808   0.00000  Uiso   1.00
C4242  C     0.50000   0.65582   0.78788   0.00000  Uiso   1.00
C4243  C     0.62500   0.51472   0.89308   0.00000  Uiso   1.00
C4244  C     0.62500   0.53082   0.91287   0.00000  Uiso   1.00
C4245  C     0.50000   0.73528   0.76808   0.00000  Uiso   1.00
C4246  C     0.50000   0.71917   0.78788   0.00000  Uiso   1.00
C4247  C     0.62500   0.61028   0.89308   0.00000  Uiso   1.00
C4248  C     0.62500   0.59418   0.91287   0.00000  Uiso   1.00
C4249  C     0.95521   0.50736   0.99097   0.00000  Uiso   1.00
C4250  C     0.79250   0.53780   0.95355   0.00000  Uiso   1.00
O4251  O     0.95750   0.53780   0.95355   0.00000  Uiso   1.00
C4252  C     0.83021   0.63236   0.86597   0.00000  Uiso   1.00
C4253  C     0.91750   0.66280   0.82855   0.00000  Uiso   1.00
O4254  O     0.83250   0.66280   0.82855   0.00000  Uiso   1.00
C4255  C     0.79479   0.61764   0.99097   0.00000  Uiso   1.00
C4256  C     0.95750   0.58720   0.95355   0.00000  Uiso   1.00
O4257  O     0.79250   0.58720   0.95355   0.00000  Uiso   1.00
C4258  C     0.91979   0.74264   0.86597   0.00000  Uiso   1.00
C4259  C     0.83250   0.71220   0.82855   0.00000  Uiso   1.00
O4260  O     0.91750   0.71220   0.82855   0.00000  Uiso   1.00
C4261  C     0.79479   0.63236   0.75903   0.00000  Uiso   1.00
C4262  C     0.95750   0.66280   0.79645   0.00000  Uiso   1.00
O4263  O     0.79250   0.66280   0.79645   0.00000  Uiso   1.00
C4264  C     0.91979   0.50736   0.88403   0.00000  Uiso   1.00
C4265  C     0.83250   0.53780   0.92145   0.00000  Uiso   1.00
O4266  O     0.91750   0.53780   0.92145   0.00000  Uiso   1.00
C4267  C     0.95521   0.74264   0.75903   0.00000  Uiso   1.00
C4268  C     0.79250   0.71220   0.79645   0.00000  Uiso   1.00
O4269  O     0.95750   0.71220   0.79645   0.00000  Uiso   1.00
C4270  C     0.83021   0.61764   0.88403   0.00000  Uiso   1.00
C4271  C     0.91750   0.58720   0.92145   0.00000  Uiso   1.00
O4272  O     0.83250   0.58720   0.92145   0.00000  Uiso   1.00
C4273  C     0.79479   0.74264   0.75903   0.00000  Uiso   1.00
C4274  C     0.95750   0.71220   0.79645   0.00000  Uiso   1.00
O4275  O     0.79250   0.71220   0.79645   0.00000  Uiso   1.00
C4276  C     0.91979   0.61764   0.88403   0.00000  Uiso   1.00
C4277  C     0.83250   0.58720   0.92145   0.00000  Uiso   1.00
O4278  O     0.91750   0.58720   0.92145   0.00000  Uiso   1.00
C4279  C     0.95521   0.63236   0.75903   0.00000  Uiso   1.00
C4280  C     0.79250   0.66280   0.79645   0.00000  Uiso   1.00
O4281  O     0.95750   0.66280   0.79645   0.00000  Uiso   1.00
C4282  C     0.83021   0.50736   0.88403   0.00000  Uiso   1.00
C4283  C     0.91750   0.53780   0.92145   0.00000  Uiso   1.00
O4284  O     0.83250   0.53780   0.92145   0.00000  Uiso   1.00
C4285  C     0.95521   0.61764   0.99097   0.00000  Uiso   1.00
C4286  C     0.79250   0.58720   0.95355   0.00000  Uiso   1.00
O4287  O     0.95750   0.58720   0.95355   0.00000  Uiso   1.00
C4288  C     0.83021   0.74264   0.86597   0.00000  Uiso   1.00
C4289  C     0.91750   0.71220   0.82855   0.00000  Uiso   1.00
O4290  O     0.83250   0.71220   0.82855   0.00000  Uiso   1.00
C4291  C     0.79479   0.50736   0.99097   0.00000  Uiso   1.00
C4292  C     0.95750   0.53780   0.95355   0.00000  Uiso   1.00
O4293  O     0.79250   0.53780   0.95355   0.00000  Uiso   1.00
C4294  C     0.91979   0.63236   0.86597   0.00000  Uiso   1.00
C4295  C     0.83250   0.66280   0.82855   0.00000  Uiso   1.00
O4296  O     0.91750   0.66280   0.82855   0.00000  Uiso   1.00
Al4297 Al    0.81250   0.56250   0.93750   0.00000  Uiso   1.00
Al4298 Al    0.93750   0.56250   0.93750   0.00000  Uiso   1.00
Al4299 Al    0.93750   0.68750   0.81250   0.00000  Uiso   1.00
Al4300 Al    0.81250   0.68750   0.81250   0.00000  Uiso   1.00
O4301  O     0.75000   0.56250   0.91824   0.00000  Uiso   1.00
O4302  O     0.87500   0.68750   0.79325   0.00000  Uiso   1.00
O4303  O     0.75000   0.68750   0.83176   0.00000  Uiso   1.00
O4304  O     0.87500   0.56250   0.95676   0.00000  Uiso   1.00
C4305  C     0.75000   0.51472   0.98192   0.00000  Uiso   1.00
C4306  C     0.75000   0.53082   0.96212   0.00000  Uiso   1.00
C4307  C     0.87500   0.63972   0.85693   0.00000  Uiso   1.00
C4308  C     0.87500   0.65582   0.83712   0.00000  Uiso   1.00
C4309  C     0.75000   0.61028   0.98192   0.00000  Uiso   1.00
C4310  C     0.75000   0.59418   0.96212   0.00000  Uiso   1.00
C4311  C     0.87500   0.73528   0.85693   0.00000  Uiso   1.00
C4312  C     0.87500   0.71917   0.83712   0.00000  Uiso   1.00
C4313  C     0.75000   0.63972   0.76808   0.00000  Uiso   1.00
C4314  C     0.75000   0.65582   0.78788   0.00000  Uiso   1.00
C4315  C     0.87500   0.51472   0.89308   0.00000  Uiso   1.00
C4316  C     0.87500   0.53082   0.91287   0.00000  Uiso   1.00
C4317  C     0.75000   0.73528   0.76808   0.00000  Uiso   1.00
C4318  C     0.75000   0.71917   0.78788   0.00000  Uiso   1.00
C4319  C     0.87500   0.61028   0.89308   0.00000  Uiso   1.00
C4320  C     0.87500   0.59418   0.91287   0.00000  Uiso   1.00
C4321  C     0.20521   0.75736   0.99097   0.00000  Uiso   1.00
C4322  C     0.04250   0.78780   0.95355   0.00000  Uiso   1.00
O4323  O     0.20750   0.78780   0.95355   0.00000  Uiso   1.00
C4324  C     0.08021   0.88236   0.86597   0.00000  Uiso   1.00
C4325  C     0.16750   0.91280   0.82855   0.00000  Uiso   1.00
O4326  O     0.08250   0.91280   0.82855   0.00000  Uiso   1.00
C4327  C     0.04479   0.86764   0.99097   0.00000  Uiso   1.00
C4328  C     0.20750   0.83720   0.95355   0.00000  Uiso   1.00
O4329  O     0.04250   0.83720   0.95355   0.00000  Uiso   1.00
C4330  C     0.16979   0.99264   0.86597   0.00000  Uiso   1.00
C4331  C     0.08250   0.96220   0.82855   0.00000  Uiso   1.00
O4332  O     0.16750   0.96220   0.82855   0.00000  Uiso   1.00
C4333  C     0.04479   0.88236   0.75903   0.00000  Uiso   1.00
C4334  C     0.20750   0.91280   0.79645   0.00000  Uiso   1.00
O4335  O     0.04250   0.91280   0.79645   0.00000  Uiso   1.00
C4336  C     0.16979   0.75736   0.88403   0.00000  Uiso   1.00
C4337  C     0.08250   0.78780   0.92145   0.00000  Uiso   1.00
O4338  O     0.16750   0.78780   0.92145   0.00000  Uiso   1.00
C4339  C     0.20521   0.99264   0.75903   0.00000  Uiso   1.00
C4340  C     0.04250   0.96220   0.79645   0.00000  Uiso   1.00
O4341  O     0.20750   0.96220   0.79645   0.00000  Uiso   1.00
C4342  C     0.08021   0.86764   0.88403   0.00000  Uiso   1.00
C4343  C     0.16750   0.83720   0.92145   0.00000  Uiso   1.00
O4344  O     0.08250   0.83720   0.92145   0.00000  Uiso   1.00
C4345  C     0.04479   0.99264   0.75903   0.00000  Uiso   1.00
C4346  C     0.20750   0.96220   0.79645   0.00000  Uiso   1.00
O4347  O     0.04250   0.96220   0.79645   0.00000  Uiso   1.00
C4348  C     0.16979   0.86764   0.88403   0.00000  Uiso   1.00
C4349  C     0.08250   0.83720   0.92145   0.00000  Uiso   1.00
O4350  O     0.16750   0.83720   0.92145   0.00000  Uiso   1.00
C4351  C     0.20521   0.88236   0.75903   0.00000  Uiso   1.00
C4352  C     0.04250   0.91280   0.79645   0.00000  Uiso   1.00
O4353  O     0.20750   0.91280   0.79645   0.00000  Uiso   1.00
C4354  C     0.08021   0.75736   0.88403   0.00000  Uiso   1.00
C4355  C     0.16750   0.78780   0.92145   0.00000  Uiso   1.00
O4356  O     0.08250   0.78780   0.92145   0.00000  Uiso   1.00
C4357  C     0.20521   0.86764   0.99097   0.00000  Uiso   1.00
C4358  C     0.04250   0.83720   0.95355   0.00000  Uiso   1.00
O4359  O     0.20750   0.83720   0.95355   0.00000  Uiso   1.00
C4360  C     0.08021   0.99264   0.86597   0.00000  Uiso   1.00
C4361  C     0.16750   0.96220   0.82855   0.00000  Uiso   1.00
O4362  O     0.08250   0.96220   0.82855   0.00000  Uiso   1.00
C4363  C     0.04479   0.75736   0.99097   0.00000  Uiso   1.00
C4364  C     0.20750   0.78780   0.95355   0.00000  Uiso   1.00
O4365  O     0.04250   0.78780   0.95355   0.00000  Uiso   1.00
C4366  C     0.16979   0.88236   0.86597   0.00000  Uiso   1.00
C4367  C     0.08250   0.91280   0.82855   0.00000  Uiso   1.00
O4368  O     0.16750   0.91280   0.82855   0.00000  Uiso   1.00
Al4369 Al    0.06250   0.81250   0.93750   0.00000  Uiso   1.00
Al4370 Al    0.18750   0.81250   0.93750   0.00000  Uiso   1.00
Al4371 Al    0.18750   0.93750   0.81250   0.00000  Uiso   1.00
Al4372 Al    0.06250   0.93750   0.81250   0.00000  Uiso   1.00
O4373  O     0.00000   0.81250   0.91824   0.00000  Uiso   1.00
O4374  O     0.12500   0.93750   0.79325   0.00000  Uiso   1.00
O4375  O     0.00000   0.93750   0.83176   0.00000  Uiso   1.00
O4376  O     0.12500   0.81250   0.95676   0.00000  Uiso   1.00
C4377  C     0.00000   0.76472   0.98192   0.00000  Uiso   1.00
C4378  C     0.00000   0.78082   0.96212   0.00000  Uiso   1.00
C4379  C     0.12500   0.88972   0.85693   0.00000  Uiso   1.00
C4380  C     0.12500   0.90582   0.83712   0.00000  Uiso   1.00
C4381  C     0.00000   0.86028   0.98192   0.00000  Uiso   1.00
C4382  C     0.00000   0.84418   0.96212   0.00000  Uiso   1.00
C4383  C     0.12500   0.98528   0.85693   0.00000  Uiso   1.00
C4384  C     0.12500   0.96917   0.83712   0.00000  Uiso   1.00
C4385  C     0.00000   0.88972   0.76808   0.00000  Uiso   1.00
C4386  C     0.00000   0.90582   0.78788   0.00000  Uiso   1.00
C4387  C     0.12500   0.76472   0.89308   0.00000  Uiso   1.00
C4388  C     0.12500   0.78082   0.91287   0.00000  Uiso   1.00
C4389  C     0.00000   0.98528   0.76808   0.00000  Uiso   1.00
C4390  C     0.00000   0.96917   0.78788   0.00000  Uiso   1.00
C4391  C     0.12500   0.86028   0.89308   0.00000  Uiso   1.00
C4392  C     0.12500   0.84418   0.91287   0.00000  Uiso   1.00
C4393  C     0.45521   0.75736   0.99097   0.00000  Uiso   1.00
C4394  C     0.29250   0.78780   0.95355   0.00000  Uiso   1.00
O4395  O     0.45750   0.78780   0.95355   0.00000  Uiso   1.00
C4396  C     0.33021   0.88236   0.86597   0.00000  Uiso   1.00
C4397  C     0.41750   0.91280   0.82855   0.00000  Uiso   1.00
O4398  O     0.33250   0.91280   0.82855   0.00000  Uiso   1.00
C4399  C     0.29479   0.86764   0.99097   0.00000  Uiso   1.00
C4400  C     0.45750   0.83720   0.95355   0.00000  Uiso   1.00
O4401  O     0.29250   0.83720   0.95355   0.00000  Uiso   1.00
C4402  C     0.41979   0.99264   0.86597   0.00000  Uiso   1.00
C4403  C     0.33250   0.96220   0.82855   0.00000  Uiso   1.00
O4404  O     0.41750   0.96220   0.82855   0.00000  Uiso   1.00
C4405  C     0.29479   0.88236   0.75903   0.00000  Uiso   1.00
C4406  C     0.45750   0.91280   0.79645   0.00000  Uiso   1.00
O4407  O     0.29250   0.91280   0.79645   0.00000  Uiso   1.00
C4408  C     0.41979   0.75736   0.88403   0.00000  Uiso   1.00
C4409  C     0.33250   0.78780   0.92145   0.00000  Uiso   1.00
O4410  O     0.41750   0.78780   0.92145   0.00000  Uiso   1.00
C4411  C     0.45521   0.99264   0.75903   0.00000  Uiso   1.00
C4412  C     0.29250   0.96220   0.79645   0.00000  Uiso   1.00
O4413  O     0.45750   0.96220   0.79645   0.00000  Uiso   1.00
C4414  C     0.33021   0.86764   0.88403   0.00000  Uiso   1.00
C4415  C     0.41750   0.83720   0.92145   0.00000  Uiso   1.00
O4416  O     0.33250   0.83720   0.92145   0.00000  Uiso   1.00
C4417  C     0.29479   0.99264   0.75903   0.00000  Uiso   1.00
C4418  C     0.45750   0.96220   0.79645   0.00000  Uiso   1.00
O4419  O     0.29250   0.96220   0.79645   0.00000  Uiso   1.00
C4420  C     0.41979   0.86764   0.88403   0.00000  Uiso   1.00
C4421  C     0.33250   0.83720   0.92145   0.00000  Uiso   1.00
O4422  O     0.41750   0.83720   0.92145   0.00000  Uiso   1.00
C4423  C     0.45521   0.88236   0.75903   0.00000  Uiso   1.00
C4424  C     0.29250   0.91280   0.79645   0.00000  Uiso   1.00
O4425  O     0.45750   0.91280   0.79645   0.00000  Uiso   1.00
C4426  C     0.33021   0.75736   0.88403   0.00000  Uiso   1.00
C4427  C     0.41750   0.78780   0.92145   0.00000  Uiso   1.00
O4428  O     0.33250   0.78780   0.92145   0.00000  Uiso   1.00
C4429  C     0.45521   0.86764   0.99097   0.00000  Uiso   1.00
C4430  C     0.29250   0.83720   0.95355   0.00000  Uiso   1.00
O4431  O     0.45750   0.83720   0.95355   0.00000  Uiso   1.00
C4432  C     0.33021   0.99264   0.86597   0.00000  Uiso   1.00
C4433  C     0.41750   0.96220   0.82855   0.00000  Uiso   1.00
O4434  O     0.33250   0.96220   0.82855   0.00000  Uiso   1.00
C4435  C     0.29479   0.75736   0.99097   0.00000  Uiso   1.00
C4436  C     0.45750   0.78780   0.95355   0.00000  Uiso   1.00
O4437  O     0.29250   0.78780   0.95355   0.00000  Uiso   1.00
C4438  C     0.41979   0.88236   0.86597   0.00000  Uiso   1.00
C4439  C     0.33250   0.91280   0.82855   0.00000  Uiso   1.00
O4440  O     0.41750   0.91280   0.82855   0.00000  Uiso   1.00
Al4441 Al    0.31250   0.81250   0.93750   0.00000  Uiso   1.00
Al4442 Al    0.43750   0.81250   0.93750   0.00000  Uiso   1.00
Al4443 Al    0.43750   0.93750   0.81250   0.00000  Uiso   1.00
Al4444 Al    0.31250   0.93750   0.81250   0.00000  Uiso   1.00
O4445  O     0.25000   0.81250   0.91824   0.00000  Uiso   1.00
O4446  O     0.37500   0.93750   0.79325   0.00000  Uiso   1.00
O4447  O     0.25000   0.93750   0.83176   0.00000  Uiso   1.00
O4448  O     0.37500   0.81250   0.95676   0.00000  Uiso   1.00
C4449  C     0.25000   0.76472   0.98192   0.00000  Uiso   1.00
C4450  C     0.25000   0.78082   0.96212   0.00000  Uiso   1.00
C4451  C     0.37500   0.88972   0.85693   0.00000  Uiso   1.00
C4452  C     0.37500   0.90582   0.83712   0.00000  Uiso   1.00
C4453  C     0.25000   0.86028   0.98192   0.00000  Uiso   1.00
C4454  C     0.25000   0.84418   0.96212   0.00000  Uiso   1.00
C4455  C     0.37500   0.98528   0.85693   0.00000  Uiso   1.00
C4456  C     0.37500   0.96917   0.83712   0.00000  Uiso   1.00
C4457  C     0.25000   0.88972   0.76808   0.00000  Uiso   1.00
C4458  C     0.25000   0.90582   0.78788   0.00000  Uiso   1.00
C4459  C     0.37500   0.76472   0.89308   0.00000  Uiso   1.00
C4460  C     0.37500   0.78082   0.91287   0.00000  Uiso   1.00
C4461  C     0.25000   0.98528   0.76808   0.00000  Uiso   1.00
C4462  C     0.25000   0.96917   0.78788   0.00000  Uiso   1.00
C4463  C     0.37500   0.86028   0.89308   0.00000  Uiso   1.00
C4464  C     0.37500   0.84418   0.91287   0.00000  Uiso   1.00
C4465  C     0.70521   0.75736   0.99097   0.00000  Uiso   1.00
C4466  C     0.54250   0.78780   0.95355   0.00000  Uiso   1.00
O4467  O     0.70750   0.78780   0.95355   0.00000  Uiso   1.00
C4468  C     0.58021   0.88236   0.86597   0.00000  Uiso   1.00
C4469  C     0.66750   0.91280   0.82855   0.00000  Uiso   1.00
O4470  O     0.58250   0.91280   0.82855   0.00000  Uiso   1.00
C4471  C     0.54479   0.86764   0.99097   0.00000  Uiso   1.00
C4472  C     0.70750   0.83720   0.95355   0.00000  Uiso   1.00
O4473  O     0.54250   0.83720   0.95355   0.00000  Uiso   1.00
C4474  C     0.66979   0.99264   0.86597   0.00000  Uiso   1.00
C4475  C     0.58250   0.96220   0.82855   0.00000  Uiso   1.00
O4476  O     0.66750   0.96220   0.82855   0.00000  Uiso   1.00
C4477  C     0.54479   0.88236   0.75903   0.00000  Uiso   1.00
C4478  C     0.70750   0.91280   0.79645   0.00000  Uiso   1.00
O4479  O     0.54250   0.91280   0.79645   0.00000  Uiso   1.00
C4480  C     0.66979   0.75736   0.88403   0.00000  Uiso   1.00
C4481  C     0.58250   0.78780   0.92145   0.00000  Uiso   1.00
O4482  O     0.66750   0.78780   0.92145   0.00000  Uiso   1.00
C4483  C     0.70521   0.99264   0.75903   0.00000  Uiso   1.00
C4484  C     0.54250   0.96220   0.79645   0.00000  Uiso   1.00
O4485  O     0.70750   0.96220   0.79645   0.00000  Uiso   1.00
C4486  C     0.58021   0.86764   0.88403   0.00000  Uiso   1.00
C4487  C     0.66750   0.83720   0.92145   0.00000  Uiso   1.00
O4488  O     0.58250   0.83720   0.92145   0.00000  Uiso   1.00
C4489  C     0.54479   0.99264   0.75903   0.00000  Uiso   1.00
C4490  C     0.70750   0.96220   0.79645   0.00000  Uiso   1.00
O4491  O     0.54250   0.96220   0.79645   0.00000  Uiso   1.00
C4492  C     0.66979   0.86764   0.88403   0.00000  Uiso   1.00
C4493  C     0.58250   0.83720   0.92145   0.00000  Uiso   1.00
O4494  O     0.66750   0.83720   0.92145   0.00000  Uiso   1.00
C4495  C     0.70521   0.88236   0.75903   0.00000  Uiso   1.00
C4496  C     0.54250   0.91280   0.79645   0.00000  Uiso   1.00
O4497  O     0.70750   0.91280   0.79645   0.00000  Uiso   1.00
C4498  C     0.58021   0.75736   0.88403   0.00000  Uiso   1.00
C4499  C     0.66750   0.78780   0.92145   0.00000  Uiso   1.00
O4500  O     0.58250   0.78780   0.92145   0.00000  Uiso   1.00
C4501  C     0.70521   0.86764   0.99097   0.00000  Uiso   1.00
C4502  C     0.54250   0.83720   0.95355   0.00000  Uiso   1.00
O4503  O     0.70750   0.83720   0.95355   0.00000  Uiso   1.00
C4504  C     0.58021   0.99264   0.86597   0.00000  Uiso   1.00
C4505  C     0.66750   0.96220   0.82855   0.00000  Uiso   1.00
O4506  O     0.58250   0.96220   0.82855   0.00000  Uiso   1.00
C4507  C     0.54479   0.75736   0.99097   0.00000  Uiso   1.00
C4508  C     0.70750   0.78780   0.95355   0.00000  Uiso   1.00
O4509  O     0.54250   0.78780   0.95355   0.00000  Uiso   1.00
C4510  C     0.66979   0.88236   0.86597   0.00000  Uiso   1.00
C4511  C     0.58250   0.91280   0.82855   0.00000  Uiso   1.00
O4512  O     0.66750   0.91280   0.82855   0.00000  Uiso   1.00
Al4513 Al    0.56250   0.81250   0.93750   0.00000  Uiso   1.00
Al4514 Al    0.68750   0.81250   0.93750   0.00000  Uiso   1.00
Al4515 Al    0.68750   0.93750   0.81250   0.00000  Uiso   1.00
Al4516 Al    0.56250   0.93750   0.81250   0.00000  Uiso   1.00
O4517  O     0.50000   0.81250   0.91824   0.00000  Uiso   1.00
O4518  O     0.62500   0.93750   0.79325   0.00000  Uiso   1.00
O4519  O     0.50000   0.93750   0.83176   0.00000  Uiso   1.00
O4520  O     0.62500   0.81250   0.95676   0.00000  Uiso   1.00
C4521  C     0.50000   0.76472   0.98192   0.00000  Uiso   1.00
C4522  C     0.50000   0.78082   0.96212   0.00000  Uiso   1.00
C4523  C     0.62500   0.88972   0.85693   0.00000  Uiso   1.00
C4524  C     0.62500   0.90582   0.83712   0.00000  Uiso   1.00
C4525  C     0.50000   0.86028   0.98192   0.00000  Uiso   1.00
C4526  C     0.50000   0.84418   0.96212   0.00000  Uiso   1.00
C4527  C     0.62500   0.98528   0.85693   0.00000  Uiso   1.00
C4528  C     0.62500   0.96917   0.83712   0.00000  Uiso   1.00
C4529  C     0.50000   0.88972   0.76808   0.00000  Uiso   1.00
C4530  C     0.50000   0.90582   0.78788   0.00000  Uiso   1.00
C4531  C     0.62500   0.76472   0.89308   0.00000  Uiso   1.00
C4532  C     0.62500   0.78082   0.91287   0.00000  Uiso   1.00
C4533  C     0.50000   0.98528   0.76808   0.00000  Uiso   1.00
C4534  C     0.50000   0.96917   0.78788   0.00000  Uiso   1.00
C4535  C     0.62500   0.86028   0.89308   0.00000  Uiso   1.00
C4536  C     0.62500   0.84418   0.91287   0.00000  Uiso   1.00
C4537  C     0.95521   0.75736   0.99097   0.00000  Uiso   1.00
C4538  C     0.79250   0.78780   0.95355   0.00000  Uiso   1.00
O4539  O     0.95750   0.78780   0.95355   0.00000  Uiso   1.00
C4540  C     0.83021   0.88236   0.86597   0.00000  Uiso   1.00
C4541  C     0.91750   0.91280   0.82855   0.00000  Uiso   1.00
O4542  O     0.83250   0.91280   0.82855   0.00000  Uiso   1.00
C4543  C     0.79479   0.86764   0.99097   0.00000  Uiso   1.00
C4544  C     0.95750   0.83720   0.95355   0.00000  Uiso   1.00
O4545  O     0.79250   0.83720   0.95355   0.00000  Uiso   1.00
C4546  C     0.91979   0.99264   0.86597   0.00000  Uiso   1.00
C4547  C     0.83250   0.96220   0.82855   0.00000  Uiso   1.00
O4548  O     0.91750   0.96220   0.82855   0.00000  Uiso   1.00
C4549  C     0.79479   0.88236   0.75903   0.00000  Uiso   1.00
C4550  C     0.95750   0.91280   0.79645   0.00000  Uiso   1.00
O4551  O     0.79250   0.91280   0.79645   0.00000  Uiso   1.00
C4552  C     0.91979   0.75736   0.88403   0.00000  Uiso   1.00
C4553  C     0.83250   0.78780   0.92145   0.00000  Uiso   1.00
O4554  O     0.91750   0.78780   0.92145   0.00000  Uiso   1.00
C4555  C     0.95521   0.99264   0.75903   0.00000  Uiso   1.00
C4556  C     0.79250   0.96220   0.79645   0.00000  Uiso   1.00
O4557  O     0.95750   0.96220   0.79645   0.00000  Uiso   1.00
C4558  C     0.83021   0.86764   0.88403   0.00000  Uiso   1.00
C4559  C     0.91750   0.83720   0.92145   0.00000  Uiso   1.00
O4560  O     0.83250   0.83720   0.92145   0.00000  Uiso   1.00
C4561  C     0.79479   0.99264   0.75903   0.00000  Uiso   1.00
C4562  C     0.95750   0.96220   0.79645   0.00000  Uiso   1.00
O4563  O     0.79250   0.96220   0.79645   0.00000  Uiso   1.00
C4564  C     0.91979   0.86764   0.88403   0.00000  Uiso   1.00
C4565  C     0.83250   0.83720   0.92145   0.00000  Uiso   1.00
O4566  O     0.91750   0.83720   0.92145   0.00000  Uiso   1.00
C4567  C     0.95521   0.88236   0.75903   0.00000  Uiso   1.00
C4568  C     0.79250   0.91280   0.79645   0.00000  Uiso   1.00
O4569  O     0.95750   0.91280   0.79645   0.00000  Uiso   1.00
C4570  C     0.83021   0.75736   0.88403   0.00000  Uiso   1.00
C4571  C     0.91750   0.78780   0.92145   0.00000  Uiso   1.00
O4572  O     0.83250   0.78780   0.92145   0.00000  Uiso   1.00
C4573  C     0.95521   0.86764   0.99097   0.00000  Uiso   1.00
C4574  C     0.79250   0.83720   0.95355   0.00000  Uiso   1.00
O4575  O     0.95750   0.83720   0.95355   0.00000  Uiso   1.00
C4576  C     0.83021   0.99264   0.86597   0.00000  Uiso   1.00
C4577  C     0.91750   0.96220   0.82855   0.00000  Uiso   1.00
O4578  O     0.83250   0.96220   0.82855   0.00000  Uiso   1.00
C4579  C     0.79479   0.75736   0.99097   0.00000  Uiso   1.00
C4580  C     0.95750   0.78780   0.95355   0.00000  Uiso   1.00
O4581  O     0.79250   0.78780   0.95355   0.00000  Uiso   1.00
C4582  C     0.91979   0.88236   0.86597   0.00000  Uiso   1.00
C4583  C     0.83250   0.91280   0.82855   0.00000  Uiso   1.00
O4584  O     0.91750   0.91280   0.82855   0.00000  Uiso   1.00
Al4585 Al    0.81250   0.81250   0.93750   0.00000  Uiso   1.00
Al4586 Al    0.93750   0.81250   0.93750   0.00000  Uiso   1.00
Al4587 Al    0.93750   0.93750   0.81250   0.00000  Uiso   1.00
Al4588 Al    0.81250   0.93750   0.81250   0.00000  Uiso   1.00
O4589  O     0.75000   0.81250   0.91824   0.00000  Uiso   1.00
O4590  O     0.87500   0.93750   0.79325   0.00000  Uiso   1.00
O4591  O     0.75000   0.93750   0.83176   0.00000  Uiso   1.00
O4592  O     0.87500   0.81250   0.95676   0.00000  Uiso   1.00
C4593  C     0.75000   0.76472   0.98192   0.00000  Uiso   1.00
C4594  C     0.75000   0.78082   0.96212   0.00000  Uiso   1.00
C4595  C     0.87500   0.88972   0.85693   0.00000  Uiso   1.00
C4596  C     0.87500   0.90582   0.83712   0.00000  Uiso   1.00
C4597  C     0.75000   0.86028   0.98192   0.00000  Uiso   1.00
C4598  C     0.75000   0.84418   0.96212   0.00000  Uiso   1.00
C4599  C     0.87500   0.98528   0.85693   0.00000  Uiso   1.00
C4600  C     0.87500   0.96917   0.83712   0.00000  Uiso   1.00
C4601  C     0.75000   0.88972   0.76808   0.00000  Uiso   1.00
C4602  C     0.75000   0.90582   0.78788   0.00000  Uiso   1.00
C4603  C     0.87500   0.76472   0.89308   0.00000  Uiso   1.00
C4604  C     0.87500   0.78082   0.91287   0.00000  Uiso   1.00
C4605  C     0.75000   0.98528   0.76808   0.00000  Uiso   1.00
C4606  C     0.75000   0.96917   0.78788   0.00000  Uiso   1.00
C4607  C     0.87500   0.86028   0.89308   0.00000  Uiso   1.00
C4608  C     0.87500   0.84418   0.91287   0.00000  Uiso   1.00
loop_
_geom_bond_atom_site_label_1
_geom_bond_atom_site_label_2
_geom_bond_distance
_geom_bond_site_symmetry_2
_ccdc_geom_bond_type
C1     C129    1.370   .     A
C1     C2035   1.369   1_545 A
C2     Al49    1.899   .     S
C2     C58     1.300   .     S
O3     C130    1.300   .     S
O3     Al50    1.899   .     S
C4     C59     1.370   .     A
C4     C22     1.369   .     A
C5     Al51    1.899   .     S
C5     C60     1.300   .     S
O6     C60     1.300   .     S
O6     Al52    1.899   .     S
C7     C61     1.370   .     A
C7     C1165   1.369   .     A
C8     Al50    1.899   .     S
C8     C134    1.300   .     S
O9     C62     1.300   .     S
O9     Al49    1.899   .     S
C10    C63     1.370   .     A
C10    C304    1.369   .     A
C11    Al52    1.899   .     S
C11    C64     1.300   .     S
O12    C64     1.300   .     S
O12    Al51    1.899   .     S
C13    C65     1.370   .     A
C13    C3463   1.369   1_554 A
C14    Al51    1.899   .     S
C14    C138    1.300   .     S
O15    C66     1.300   .     S
O15    Al52    1.899   .     S
C16    C67     1.370   .     A
C16    C874    1.369   1_545 A
C17    Al49    1.899   .     S
C17    C68     1.300   .     S
O18    C68     1.300   .     S
O18    Al50    1.899   .     S
C19    C141    1.370   .     A
C19    C3745   1.369   1_554 A
C20    Al52    1.899   .     S
C20    C70     1.300   .     S
O21    C142    1.300   .     S
O21    Al51    1.899   .     S
C22    C71     1.370   .     A
C23    Al50    1.899   .     S
C23    C72     1.300   .     S
O24    C72     1.300   .     S
O24    Al49    1.899   .     S
C25    C69     1.370   .     A
C25    C3787   1.369   1_554 A
C26    Al51    1.899   .     S
C26    C142    1.300   .     S
O27    C70     1.300   .     S
O27    Al52    1.899   .     S
C28    C71     1.370   .     A
C28    C46     1.369   .     A
C29    Al49    1.899   .     S
C29    C72     1.300   .     S
O30    C72     1.300   .     S
O30    Al50    1.899   .     S
C31    C137    1.370   .     A
C31    C3493   1.369   1_554 A
C32    Al52    1.899   .     S
C32    C66     1.300   .     S
O33    C138    1.300   .     S
O33    Al51    1.899   .     S
C34    C67     1.370   .     A
C34    C904    1.369   1_545 A
C35    Al50    1.899   .     S
C35    C68     1.300   .     S
O36    C68     1.300   .     S
O36    Al49    1.899   .     S
C37    C133    1.370   .     A
C37    C1183   1.369   .     A
C38    Al49    1.899   .     S
C38    C62     1.300   .     S
O39    C134    1.300   .     S
O39    Al50    1.899   .     S
C40    C63     1.370   .     A
C40    C322    1.369   .     A
C41    Al51    1.899   .     S
C41    C64     1.300   .     S
O42    C64     1.300   .     S
O42    Al52    1.899   .     S
C43    C57     1.370   .     A
C43    C2041   1.369   1_545 A
C44    Al50    1.899   .     S
C44    C130    1.300   .     S
O45    C58     1.300   .     S
O45    Al49    1.899   .     S
C46    C59     1.370   .     A
C47    Al52    1.899   .     S
C47    C60     1.300   .     S
O48    C60     1.300   .     S
O48    Al51    1.899   .     S
Al49   O53     1.959   .     S
Al49   O56     1.959   .     S
Al50   O125    1.959   .     S
Al50   O56     1.959   .     S
Al51   O127    1.959   .     S
Al51   O54     1.959   .     S
Al52   O55     1.959   .     S
Al52   O54     1.959   .     S
O53    Al266   1.959   1_455 S
O55    Al267   1.959   1_455 S
C57    C217    1.370   1_455 A
C57    C58     1.500   .     S
C58    C260    1.300   1_455 S
C58    O219    1.300   1_455 S
C59    C60     1.500   .     S
C61    C253    1.370   1_455 A
C61    C62     1.500   .     S
C62    C224    1.300   1_455 S
C62    O255    1.300   1_455 S
C63    C64     1.500   .     S
C65    C247    1.370   1_455 A
C65    C66     1.500   .     S
C66    C230    1.300   1_455 S
C66    O249    1.300   1_455 S
C67    C68     1.500   .     S
C69    C235    1.370   1_455 A
C69    C70     1.500   .     S
C70    C242    1.300   1_455 S
C70    O237    1.300   1_455 S
C71    C72     1.500   .     S
C73    C201    1.370   .     A
C73    C2107   1.369   1_545 A
C74    Al121   1.899   .     S
C74    C130    1.300   .     S
O75    C202    1.300   .     S
O75    Al122   1.899   .     S
C76    C131    1.370   .     A
C76    C94     1.369   .     A
C77    Al123   1.899   .     S
C77    C132    1.300   .     S
O78    C132    1.300   .     S
O78    Al124   1.899   .     S
C79    C133    1.370   .     A
C79    C1237   1.369   .     A
C80    Al122   1.899   .     S
C80    C206    1.300   .     S
O81    C134    1.300   .     S
O81    Al121   1.899   .     S
C82    C135    1.370   .     A
C82    C376    1.369   .     A
C83    Al124   1.899   .     S
C83    C136    1.300   .     S
O84    C136    1.300   .     S
O84    Al123   1.899   .     S
C85    C137    1.370   .     A
C85    C3535   1.369   1_554 A
C86    Al123   1.899   .     S
C86    C210    1.300   .     S
O87    C138    1.300   .     S
O87    Al124   1.899   .     S
C88    C139    1.370   .     A
C88    C946    1.369   1_545 A
C89    Al121   1.899   .     S
C89    C140    1.300   .     S
O90    C140    1.300   .     S
O90    Al122   1.899   .     S
C91    C213    1.370   .     A
C91    C3817   1.369   1_554 A
C92    Al124   1.899   .     S
C92    C142    1.300   .     S
O93    C214    1.300   .     S
O93    Al123   1.899   .     S
C94    C143    1.370   .     A
C95    Al122   1.899   .     S
C95    C144    1.300   .     S
O96    C144    1.300   .     S
O96    Al121   1.899   .     S
C97    C141    1.370   .     A
C97    C3859   1.369   1_554 A
C98    Al123   1.899   .     S
C98    C214    1.300   .     S
O99    C142    1.300   .     S
O99    Al124   1.899   .     S
C100   C143    1.370   .     A
C100   C118    1.369   .     A
C101   Al121   1.899   .     S
C101   C144    1.300   .     S
O102   C144    1.300   .     S
O102   Al122   1.899   .     S
C103   C209    1.370   .     A
C103   C3565   1.369   1_554 A
C104   Al124   1.899   .     S
C104   C138    1.300   .     S
O105   C210    1.300   .     S
O105   Al123   1.899   .     S
C106   C139    1.370   .     A
C106   C976    1.369   1_545 A
C107   Al122   1.899   .     S
C107   C140    1.300   .     S
O108   C140    1.300   .     S
O108   Al121   1.899   .     S
C109   C205    1.370   .     A
C109   C1255   1.369   .     A
C110   Al121   1.899   .     S
C110   C134    1.300   .     S
O111   C206    1.300   .     S
O111   Al122   1.899   .     S
C112   C135    1.370   .     A
C112   C394    1.369   .     A
C113   Al123   1.899   .     S
C113   C136    1.300   .     S
O114   C136    1.300   .     S
O114   Al124   1.899   .     S
C115   C129    1.370   .     A
C115   C2113   1.369   1_545 A
C116   Al122   1.899   .     S
C116   C202    1.300   .     S
O117   C130    1.300   .     S
O117   Al121   1.899   .     S
C118   C131    1.370   .     A
C119   Al124   1.899   .     S
C119   C132    1.300   .     S
O120   C132    1.300   .     S
O120   Al123   1.899   .     S
Al121  O125    1.959   .     S
Al121  O128    1.959   .     S
Al122  O197    1.959   .     S
Al122  O128    1.959   .     S
Al123  O199    1.959   .     S
Al123  O126    1.959   .     S
Al124  O127    1.959   .     S
Al124  O126    1.959   .     S
C129   C130    1.500   .     S
C131   C132    1.500   .     S
C133   C134    1.500   .     S
C135   C136    1.500   .     S
C137   C138    1.500   .     S
C139   C140    1.500   .     S
C141   C142    1.500   .     S
C143   C144    1.500   .     S
C145   C273    1.370   .     A
C145   C2179   1.369   1_545 A
C146   Al193   1.899   .     S
C146   C202    1.300   .     S
O147   C274    1.300   .     S
O147   Al194   1.899   .     S
C148   C203    1.370   .     A
C148   C166    1.369   .     A
C149   Al195   1.899   .     S
C149   C204    1.300   .     S
O150   C204    1.300   .     S
O150   Al196   1.899   .     S
C151   C205    1.370   .     A
C151   C1309   1.369   .     A
C152   Al194   1.899   .     S
C152   C278    1.300   .     S
O153   C206    1.300   .     S
O153   Al193   1.899   .     S
C154   C207    1.370   .     A
C154   C448    1.369   .     A
C155   Al196   1.899   .     S
C155   C208    1.300   .     S
O156   C208    1.300   .     S
O156   Al195   1.899   .     S
C157   C209    1.370   .     A
C157   C3607   1.369   1_554 A
C158   Al195   1.899   .     S
C158   C282    1.300   .     S
O159   C210    1.300   .     S
O159   Al196   1.899   .     S
C160   C211    1.370   .     A
C160   C1018   1.369   1_545 A
C161   Al193   1.899   .     S
C161   C212    1.300   .     S
O162   C212    1.300   .     S
O162   Al194   1.899   .     S
C163   C285    1.370   .     A
C163   C3889   1.369   1_554 A
C164   Al196   1.899   .     S
C164   C214    1.300   .     S
O165   C286    1.300   .     S
O165   Al195   1.899   .     S
C166   C215    1.370   .     A
C167   Al194   1.899   .     S
C167   C216    1.300   .     S
O168   C216    1.300   .     S
O168   Al193   1.899   .     S
C169   C213    1.370   .     A
C169   C3931   1.369   1_554 A
C170   Al195   1.899   .     S
C170   C286    1.300   .     S
O171   C214    1.300   .     S
O171   Al196   1.899   .     S
C172   C215    1.370   .     A
C172   C190    1.369   .     A
C173   Al193   1.899   .     S
C173   C216    1.300   .     S
O174   C216    1.300   .     S
O174   Al194   1.899   .     S
C175   C281    1.370   .     A
C175   C3637   1.369   1_554 A
C176   Al196   1.899   .     S
C176   C210    1.300   .     S
O177   C282    1.300   .     S
O177   Al195   1.899   .     S
C178   C211    1.370   .     A
C178   C1048   1.369   1_545 A
C179   Al194   1.899   .     S
C179   C212    1.300   .     S
O180   C212    1.300   .     S
O180   Al193   1.899   .     S
C181   C277    1.370   .     A
C181   C1327   1.369   .     A
C182   Al193   1.899   .     S
C182   C206    1.300   .     S
O183   C278    1.300   .     S
O183   Al194   1.899   .     S
C184   C207    1.370   .     A
C184   C466    1.369   .     A
C185   Al195   1.899   .     S
C185   C208    1.300   .     S
O186   C208    1.300   .     S
O186   Al196   1.899   .     S
C187   C201    1.370   .     A
C187   C2185   1.369   1_545 A
C188   Al194   1.899   .     S
C188   C274    1.300   .     S
O189   C202    1.300   .     S
O189   Al193   1.899   .     S
C190   C203    1.370   .     A
C191   Al196   1.899   .     S
C191   C204    1.300   .     S
O192   C204    1.300   .     S
O192   Al195   1.899   .     S
Al193  O197    1.959   .     S
Al193  O200    1.959   .     S
Al194  O269    1.959   .     S
Al194  O200    1.959   .     S
Al195  O271    1.959   .     S
Al195  O198    1.959   .     S
Al196  O199    1.959   .     S
Al196  O198    1.959   .     S
C201   C202    1.500   .     S
C203   C204    1.500   .     S
C205   C206    1.500   .     S
C207   C208    1.500   .     S
C209   C210    1.500   .     S
C211   C212    1.500   .     S
C213   C214    1.500   .     S
C215   C216    1.500   .     S
C217   C57     1.370   1_655 A
C217   C2251   1.369   1_545 A
C218   Al265   1.899   .     S
C218   C274    1.300   .     S
O219   C58     1.300   1_655 S
O219   Al266   1.899   .     S
C220   C275    1.370   .     A
C220   C238    1.369   .     A
C221   Al267   1.899   .     S
C221   C276    1.300   .     S
O222   C276    1.300   .     S
O222   Al268   1.899   .     S
C223   C277    1.370   .     A
C223   C1381   1.369   .     A
C224   Al266   1.899   .     S
C224   C62     1.300   1_655 S
O225   C278    1.300   .     S
O225   Al265   1.899   .     S
C226   C279    1.370   .     A
C226   C520    1.369   .     A
C227   Al268   1.899   .     S
C227   C280    1.300   .     S
O228   C280    1.300   .     S
O228   Al267   1.899   .     S
C229   C281    1.370   .     A
C229   C3679   1.369   1_554 A
C230   Al267   1.899   .     S
C230   C66     1.300   1_655 S
O231   C282    1.300   .     S
O231   Al268   1.899   .     S
C232   C283    1.370   .     A
C232   C1090   1.369   1_545 A
C233   Al265   1.899   .     S
C233   C284    1.300   .     S
O234   C284    1.300   .     S
O234   Al266   1.899   .     S
C235   C69     1.370   1_655 A
C235   C3961   1.369   1_554 A
C236   Al268   1.899   .     S
C236   C286    1.300   .     S
O237   C70     1.300   1_655 S
O237   Al267   1.899   .     S
C238   C287    1.370   .     A
C239   Al266   1.899   .     S
C239   C288    1.300   .     S
O240   C288    1.300   .     S
O240   Al265   1.899   .     S
C241   C285    1.370   .     A
C241   C4003   1.369   1_554 A
C242   Al267   1.899   .     S
C242   C70     1.300   1_655 S
O243   C286    1.300   .     S
O243   Al268   1.899   .     S
C244   C287    1.370   .     A
C244   C262    1.369   .     A
C245   Al265   1.899   .     S
C245   C288    1.300   .     S
O246   C288    1.300   .     S
O246   Al266   1.899   .     S
C247   C65     1.370   1_655 A
C247   C3709   1.369   1_554 A
C248   Al268   1.899   .     S
C248   C282    1.300   .     S
O249   C66     1.300   1_655 S
O249   Al267   1.899   .     S
C250   C283    1.370   .     A
C250   C1120   1.369   1_545 A
C251   Al266   1.899   .     S
C251   C284    1.300   .     S
O252   C284    1.300   .     S
O252   Al265   1.899   .     S
C253   C61     1.370   1_655 A
C253   C1399   1.369   .     A
C254   Al265   1.899   .     S
C254   C278    1.300   .     S
O255   C62     1.300   1_655 S
O255   Al266   1.899   .     S
C256   C279    1.370   .     A
C256   C538    1.369   .     A
C257   Al267   1.899   .     S
C257   C280    1.300   .     S
O258   C280    1.300   .     S
O258   Al268   1.899   .     S
C259   C273    1.370   .     A
C259   C2257   1.369   1_545 A
C260   Al266   1.899   .     S
C260   C58     1.300   1_655 S
O261   C274    1.300   .     S
O261   Al265   1.899   .     S
C262   C275    1.370   .     A
C263   Al268   1.899   .     S
C263   C276    1.300   .     S
O264   C276    1.300   .     S
O264   Al267   1.899   .     S
Al265  O269    1.959   .     S
Al265  O272    1.959   .     S
Al266  O53     1.959   1_655 S
Al266  O272    1.959   .     S
Al267  O55     1.959   1_655 S
Al267  O270    1.959   .     S
Al268  O271    1.959   .     S
Al268  O270    1.959   .     S
C273   C274    1.500   .     S
C275   C276    1.500   .     S
C277   C278    1.500   .     S
C279   C280    1.500   .     S
C281   C282    1.500   .     S
C283   C284    1.500   .     S
C285   C286    1.500   .     S
C287   C288    1.500   .     S
C289   C417    1.370   .     A
C289   C1171   1.369   .     A
C290   Al337   1.899   .     S
C290   C346    1.300   .     S
O291   C418    1.300   .     S
O291   Al338   1.899   .     S
C292   C347    1.370   .     A
C292   C310    1.369   .     A
C293   Al339   1.899   .     S
C293   C348    1.300   .     S
O294   C348    1.300   .     S
O294   Al340   1.899   .     S
C295   C349    1.370   .     A
C295   C1453   1.369   .     A
C296   Al338   1.899   .     S
C296   C422    1.300   .     S
O297   C350    1.300   .     S
O297   Al337   1.899   .     S
C298   C351    1.370   .     A
C298   C592    1.369   .     A
C299   Al340   1.899   .     S
C299   C352    1.300   .     S
O300   C352    1.300   .     S
O300   Al339   1.899   .     S
C301   C353    1.370   .     A
C301   C3751   1.369   1_554 A
C302   Al339   1.899   .     S
C302   C426    1.300   .     S
O303   C354    1.300   .     S
O303   Al340   1.899   .     S
C304   C355    1.370   .     A
C305   Al337   1.899   .     S
C305   C356    1.300   .     S
O306   C356    1.300   .     S
O306   Al338   1.899   .     S
C307   C429    1.370   .     A
C307   C4033   1.369   1_554 A
C308   Al340   1.899   .     S
C308   C358    1.300   .     S
O309   C430    1.300   .     S
O309   Al339   1.899   .     S
C310   C359    1.370   .     A
C311   Al338   1.899   .     S
C311   C360    1.300   .     S
O312   C360    1.300   .     S
O312   Al337   1.899   .     S
C313   C357    1.370   .     A
C313   C4075   1.369   1_554 A
C314   Al339   1.899   .     S
C314   C430    1.300   .     S
O315   C358    1.300   .     S
O315   Al340   1.899   .     S
C316   C359    1.370   .     A
C316   C334    1.369   .     A
C317   Al337   1.899   .     S
C317   C360    1.300   .     S
O318   C360    1.300   .     S
O318   Al338   1.899   .     S
C319   C425    1.370   .     A
C319   C3781   1.369   1_554 A
C320   Al340   1.899   .     S
C320   C354    1.300   .     S
O321   C426    1.300   .     S
O321   Al339   1.899   .     S
C322   C355    1.370   .     A
C323   Al338   1.899   .     S
C323   C356    1.300   .     S
O324   C356    1.300   .     S
O324   Al337   1.899   .     S
C325   C421    1.370   .     A
C325   C1471   1.369   .     A
C326   Al337   1.899   .     S
C326   C350    1.300   .     S
O327   C422    1.300   .     S
O327   Al338   1.899   .     S
C328   C351    1.370   .     A
C328   C610    1.369   .     A
C329   Al339   1.899   .     S
C329   C352    1.300   .     S
O330   C352    1.300   .     S
O330   Al340   1.899   .     S
C331   C345    1.370   .     A
C331   C1177   1.369   .     A
C332   Al338   1.899   .     S
C332   C418    1.300   .     S
O333   C346    1.300   .     S
O333   Al337   1.899   .     S
C334   C347    1.370   .     A
C335   Al340   1.899   .     S
C335   C348    1.300   .     S
O336   C348    1.300   .     S
O336   Al339   1.899   .     S
Al337  O341    1.959   .     S
Al337  O344    1.959   .     S
Al338  O413    1.959   .     S
Al338  O344    1.959   .     S
Al339  O415    1.959   .     S
Al339  O342    1.959   .     S
Al340  O343    1.959   .     S
Al340  O342    1.959   .     S
O341   Al554   1.959   1_455 S
O343   Al555   1.959   1_455 S
C345   C505    1.370   1_455 A
C345   C346    1.500   .     S
C346   C548    1.300   1_455 S
C346   O507    1.300   1_455 S
C347   C348    1.500   .     S
C349   C541    1.370   1_455 A
C349   C350    1.500   .     S
C350   C512    1.300   1_455 S
C350   O543    1.300   1_455 S
C351   C352    1.500   .     S
C353   C535    1.370   1_455 A
C353   C354    1.500   .     S
C354   C518    1.300   1_455 S
C354   O537    1.300   1_455 S
C355   C356    1.500   .     S
C357   C523    1.370   1_455 A
C357   C358    1.500   .     S
C358   C530    1.300   1_455 S
C358   O525    1.300   1_455 S
C359   C360    1.500   .     S
C361   C489    1.370   .     A
C361   C1243   1.369   .     A
C362   Al409   1.899   .     S
C362   C418    1.300   .     S
O363   C490    1.300   .     S
O363   Al410   1.899   .     S
C364   C419    1.370   .     A
C364   C382    1.369   .     A
C365   Al411   1.899   .     S
C365   C420    1.300   .     S
O366   C420    1.300   .     S
O366   Al412   1.899   .     S
C367   C421    1.370   .     A
C367   C1525   1.369   .     A
C368   Al410   1.899   .     S
C368   C494    1.300   .     S
O369   C422    1.300   .     S
O369   Al409   1.899   .     S
C370   C423    1.370   .     A
C370   C664    1.369   .     A
C371   Al412   1.899   .     S
C371   C424    1.300   .     S
O372   C424    1.300   .     S
O372   Al411   1.899   .     S
C373   C425    1.370   .     A
C373   C3823   1.369   1_554 A
C374   Al411   1.899   .     S
C374   C498    1.300   .     S
O375   C426    1.300   .     S
O375   Al412   1.899   .     S
C376   C427    1.370   .     A
C377   Al409   1.899   .     S
C377   C428    1.300   .     S
O378   C428    1.300   .     S
O378   Al410   1.899   .     S
C379   C501    1.370   .     A
C379   C4105   1.369   1_554 A
C380   Al412   1.899   .     S
C380   C430    1.300   .     S
O381   C502    1.300   .     S
O381   Al411   1.899   .     S
C382   C431    1.370   .     A
C383   Al410   1.899   .     S
C383   C432    1.300   .     S
O384   C432    1.300   .     S
O384   Al409   1.899   .     S
C385   C429    1.370   .     A
C385   C4147   1.369   1_554 A
C386   Al411   1.899   .     S
C386   C502    1.300   .     S
O387   C430    1.300   .     S
O387   Al412   1.899   .     S
C388   C431    1.370   .     A
C388   C406    1.369   .     A
C389   Al409   1.899   .     S
C389   C432    1.300   .     S
O390   C432    1.300   .     S
O390   Al410   1.899   .     S
C391   C497    1.370   .     A
C391   C3853   1.369   1_554 A
C392   Al412   1.899   .     S
C392   C426    1.300   .     S
O393   C498    1.300   .     S
O393   Al411   1.899   .     S
C394   C427    1.370   .     A
C395   Al410   1.899   .     S
C395   C428    1.300   .     S
O396   C428    1.300   .     S
O396   Al409   1.899   .     S
C397   C493    1.370   .     A
C397   C1543   1.369   .     A
C398   Al409   1.899   .     S
C398   C422    1.300   .     S
O399   C494    1.300   .     S
O399   Al410   1.899   .     S
C400   C423    1.370   .     A
C400   C682    1.369   .     A
C401   Al411   1.899   .     S
C401   C424    1.300   .     S
O402   C424    1.300   .     S
O402   Al412   1.899   .     S
C403   C417    1.370   .     A
C403   C1249   1.369   .     A
C404   Al410   1.899   .     S
C404   C490    1.300   .     S
O405   C418    1.300   .     S
O405   Al409   1.899   .     S
C406   C419    1.370   .     A
C407   Al412   1.899   .     S
C407   C420    1.300   .     S
O408   C420    1.300   .     S
O408   Al411   1.899   .     S
Al409  O413    1.959   .     S
Al409  O416    1.959   .     S
Al410  O485    1.959   .     S
Al410  O416    1.959   .     S
Al411  O487    1.959   .     S
Al411  O414    1.959   .     S
Al412  O415    1.959   .     S
Al412  O414    1.959   .     S
C417   C418    1.500   .     S
C419   C420    1.500   .     S
C421   C422    1.500   .     S
C423   C424    1.500   .     S
C425   C426    1.500   .     S
C427   C428    1.500   .     S
C429   C430    1.500   .     S
C431   C432    1.500   .     S
C433   C561    1.370   .     A
C433   C1315   1.369   .     A
C434   Al481   1.899   .     S
C434   C490    1.300   .     S
O435   C562    1.300   .     S
O435   Al482   1.899   .     S
C436   C491    1.370   .     A
C436   C454    1.369   .     A
C437   Al483   1.899   .     S
C437   C492    1.300   .     S
O438   C492    1.300   .     S
O438   Al484   1.899   .     S
C439   C493    1.370   .     A
C439   C1597   1.369   .     A
C440   Al482   1.899   .     S
C440   C566    1.300   .     S
O441   C494    1.300   .     S
O441   Al481   1.899   .     S
C442   C495    1.370   .     A
C442   C736    1.369   .     A
C443   Al484   1.899   .     S
C443   C496    1.300   .     S
O444   C496    1.300   .     S
O444   Al483   1.899   .     S
C445   C497    1.370   .     A
C445   C3895   1.369   1_554 A
C446   Al483   1.899   .     S
C446   C570    1.300   .     S
O447   C498    1.300   .     S
O447   Al484   1.899   .     S
C448   C499    1.370   .     A
C449   Al481   1.899   .     S
C449   C500    1.300   .     S
O450   C500    1.300   .     S
O450   Al482   1.899   .     S
C451   C573    1.370   .     A
C451   C4177   1.369   1_554 A
C452   Al484   1.899   .     S
C452   C502    1.300   .     S
O453   C574    1.300   .     S
O453   Al483   1.899   .     S
C454   C503    1.370   .     A
C455   Al482   1.899   .     S
C455   C504    1.300   .     S
O456   C504    1.300   .     S
O456   Al481   1.899   .     S
C457   C501    1.370   .     A
C457   C4219   1.369   1_554 A
C458   Al483   1.899   .     S
C458   C574    1.300   .     S
O459   C502    1.300   .     S
O459   Al484   1.899   .     S
C460   C503    1.370   .     A
C460   C478    1.369   .     A
C461   Al481   1.899   .     S
C461   C504    1.300   .     S
O462   C504    1.300   .     S
O462   Al482   1.899   .     S
C463   C569    1.370   .     A
C463   C3925   1.369   1_554 A
C464   Al484   1.899   .     S
C464   C498    1.300   .     S
O465   C570    1.300   .     S
O465   Al483   1.899   .     S
C466   C499    1.370   .     A
C467   Al482   1.899   .     S
C467   C500    1.300   .     S
O468   C500    1.300   .     S
O468   Al481   1.899   .     S
C469   C565    1.370   .     A
C469   C1615   1.369   .     A
C470   Al481   1.899   .     S
C470   C494    1.300   .     S
O471   C566    1.300   .     S
O471   Al482   1.899   .     S
C472   C495    1.370   .     A
C472   C754    1.369   .     A
C473   Al483   1.899   .     S
C473   C496    1.300   .     S
O474   C496    1.300   .     S
O474   Al484   1.899   .     S
C475   C489    1.370   .     A
C475   C1321   1.369   .     A
C476   Al482   1.899   .     S
C476   C562    1.300   .     S
O477   C490    1.300   .     S
O477   Al481   1.899   .     S
C478   C491    1.370   .     A
C479   Al484   1.899   .     S
C479   C492    1.300   .     S
O480   C492    1.300   .     S
O480   Al483   1.899   .     S
Al481  O485    1.959   .     S
Al481  O488    1.959   .     S
Al482  O557    1.959   .     S
Al482  O488    1.959   .     S
Al483  O559    1.959   .     S
Al483  O486    1.959   .     S
Al484  O487    1.959   .     S
Al484  O486    1.959   .     S
C489   C490    1.500   .     S
C491   C492    1.500   .     S
C493   C494    1.500   .     S
C495   C496    1.500   .     S
C497   C498    1.500   .     S
C499   C500    1.500   .     S
C501   C502    1.500   .     S
C503   C504    1.500   .     S
C505   C345    1.370   1_655 A
C505   C1387   1.369   .     A
C506   Al553   1.899   .     S
C506   C562    1.300   .     S
O507   C346    1.300   1_655 S
O507   Al554   1.899   .     S
C508   C563    1.370   .     A
C508   C526    1.369   .     A
C509   Al555   1.899   .     S
C509   C564    1.300   .     S
O510   C564    1.300   .     S
O510   Al556   1.899   .     S
C511   C565    1.370   .     A
C511   C1669   1.369   .     A
C512   Al554   1.899   .     S
C512   C350    1.300   1_655 S
O513   C566    1.300   .     S
O513   Al553   1.899   .     S
C514   C567    1.370   .     A
C514   C808    1.369   .     A
C515   Al556   1.899   .     S
C515   C568    1.300   .     S
O516   C568    1.300   .     S
O516   Al555   1.899   .     S
C517   C569    1.370   .     A
C517   C3967   1.369   1_554 A
C518   Al555   1.899   .     S
C518   C354    1.300   1_655 S
O519   C570    1.300   .     S
O519   Al556   1.899   .     S
C520   C571    1.370   .     A
C521   Al553   1.899   .     S
C521   C572    1.300   .     S
O522   C572    1.300   .     S
O522   Al554   1.899   .     S
C523   C357    1.370   1_655 A
C523   C4249   1.369   1_554 A
C524   Al556   1.899   .     S
C524   C574    1.300   .     S
O525   C358    1.300   1_655 S
O525   Al555   1.899   .     S
C526   C575    1.370   .     A
C527   Al554   1.899   .     S
C527   C576    1.300   .     S
O528   C576    1.300   .     S
O528   Al553   1.899   .     S
C529   C573    1.370   .     A
C529   C4291   1.369   1_554 A
C530   Al555   1.899   .     S
C530   C358    1.300   1_655 S
O531   C574    1.300   .     S
O531   Al556   1.899   .     S
C532   C575    1.370   .     A
C532   C550    1.369   .     A
C533   Al553   1.899   .     S
C533   C576    1.300   .     S
O534   C576    1.300   .     S
O534   Al554   1.899   .     S
C535   C353    1.370   1_655 A
C535   C3997   1.369   1_554 A
C536   Al556   1.899   .     S
C536   C570    1.300   .     S
O537   C354    1.300   1_655 S
O537   Al555   1.899   .     S
C538   C571    1.370   .     A
C539   Al554   1.899   .     S
C539   C572    1.300   .     S
O540   C572    1.300   .     S
O540   Al553   1.899   .     S
C541   C349    1.370   1_655 A
C541   C1687   1.369   .     A
C542   Al553   1.899   .     S
C542   C566    1.300   .     S
O543   C350    1.300   1_655 S
O543   Al554   1.899   .     S
C544   C567    1.370   .     A
C544   C826    1.369   .     A
C545   Al555   1.899   .     S
C545   C568    1.300   .     S
O546   C568    1.300   .     S
O546   Al556   1.899   .     S
C547   C561    1.370   .     A
C547   C1393   1.369   .     A
C548   Al554   1.899   .     S
C548   C346    1.300   1_655 S
O549   C562    1.300   .     S
O549   Al553   1.899   .     S
C550   C563    1.370   .     A
C551   Al556   1.899   .     S
C551   C564    1.300   .     S
O552   C564    1.300   .     S
O552   Al555   1.899   .     S
Al553  O557    1.959   .     S
Al553  O560    1.959   .     S
Al554  O341    1.959   1_655 S
Al554  O560    1.959   .     S
Al555  O343    1.959   1_655 S
Al555  O558    1.959   .     S
Al556  O559    1.959   .     S
Al556  O558    1.959   .     S
C561   C562    1.500   .     S
C563   C564    1.500   .     S
C565   C566    1.500   .     S
C567   C568    1.500   .     S
C569   C570    1.500   .     S
C571   C572    1.500   .     S
C573   C574    1.500   .     S
C575   C576    1.500   .     S
C577   C705    1.370   .     A
C577   C1459   1.369   .     A
C578   Al625   1.899   .     S
C578   C634    1.300   .     S
O579   C706    1.300   .     S
O579   Al626   1.899   .     S
C580   C635    1.370   .     A
C580   C598    1.369   .     A
C581   Al627   1.899   .     S
C581   C636    1.300   .     S
O582   C636    1.300   .     S
O582   Al628   1.899   .     S
C583   C637    1.370   .     A
C583   C1741   1.369   .     A
C584   Al626   1.899   .     S
C584   C710    1.300   .     S
O585   C638    1.300   .     S
O585   Al625   1.899   .     S
C586   C639    1.370   .     A
C586   C880    1.369   .     A
C587   Al628   1.899   .     S
C587   C640    1.300   .     S
O588   C640    1.300   .     S
O588   Al627   1.899   .     S
C589   C641    1.370   .     A
C589   C4039   1.369   1_554 A
C590   Al627   1.899   .     S
C590   C714    1.300   .     S
O591   C642    1.300   .     S
O591   Al628   1.899   .     S
C592   C643    1.370   .     A
C593   Al625   1.899   .     S
C593   C644    1.300   .     S
O594   C644    1.300   .     S
O594   Al626   1.899   .     S
C595   C717    1.370   .     A
C595   C4321   1.369   1_554 A
C596   Al628   1.899   .     S
C596   C646    1.300   .     S
O597   C718    1.300   .     S
O597   Al627   1.899   .     S
C598   C647    1.370   .     A
C599   Al626   1.899   .     S
C599   C648    1.300   .     S
O600   C648    1.300   .     S
O600   Al625   1.899   .     S
C601   C645    1.370   .     A
C601   C4363   1.369   1_554 A
C602   Al627   1.899   .     S
C602   C718    1.300   .     S
O603   C646    1.300   .     S
O603   Al628   1.899   .     S
C604   C647    1.370   .     A
C604   C622    1.369   .     A
C605   Al625   1.899   .     S
C605   C648    1.300   .     S
O606   C648    1.300   .     S
O606   Al626   1.899   .     S
C607   C713    1.370   .     A
C607   C4069   1.369   1_554 A
C608   Al628   1.899   .     S
C608   C642    1.300   .     S
O609   C714    1.300   .     S
O609   Al627   1.899   .     S
C610   C643    1.370   .     A
C611   Al626   1.899   .     S
C611   C644    1.300   .     S
O612   C644    1.300   .     S
O612   Al625   1.899   .     S
C613   C709    1.370   .     A
C613   C1759   1.369   .     A
C614   Al625   1.899   .     S
C614   C638    1.300   .     S
O615   C710    1.300   .     S
O615   Al626   1.899   .     S
C616   C639    1.370   .     A
C616   C898    1.369   .     A
C617   Al627   1.899   .     S
C617   C640    1.300   .     S
O618   C640    1.300   .     S
O618   Al628   1.899   .     S
C619   C633    1.370   .     A
C619   C1465   1.369   .     A
C620   Al626   1.899   .     S
C620   C706    1.300   .     S
O621   C634    1.300   .     S
O621   Al625   1.899   .     S
C622   C635    1.370   .     A
C623   Al628   1.899   .     S
C623   C636    1.300   .     S
O624   C636    1.300   .     S
O624   Al627   1.899   .     S
Al625  O629    1.959   .     S
Al625  O632    1.959   .     S
Al626  O701    1.959   .     S
Al626  O632    1.959   .     S
Al627  O703    1.959   .     S
Al627  O630    1.959   .     S
Al628  O631    1.959   .     S
Al628  O630    1.959   .     S
O629   Al842   1.959   1_455 S
O631   Al843   1.959   1_455 S
C633   C793    1.370   1_455 A
C633   C634    1.500   .     S
C634   C836    1.300   1_455 S
C634   O795    1.300   1_455 S
C635   C636    1.500   .     S
C637   C829    1.370   1_455 A
C637   C638    1.500   .     S
C638   C800    1.300   1_455 S
C638   O831    1.300   1_455 S
C639   C640    1.500   .     S
C641   C823    1.370   1_455 A
C641   C642    1.500   .     S
C642   C806    1.300   1_455 S
C642   O825    1.300   1_455 S
C643   C644    1.500   .     S
C645   C811    1.370   1_455 A
C645   C646    1.500   .     S
C646   C818    1.300   1_455 S
C646   O813    1.300   1_455 S
C647   C648    1.500   .     S
C649   C777    1.370   .     A
C649   C1531   1.369   .     A
C650   Al697   1.899   .     S
C650   C706    1.300   .     S
O651   C778    1.300   .     S
O651   Al698   1.899   .     S
C652   C707    1.370   .     A
C652   C670    1.369   .     A
C653   Al699   1.899   .     S
C653   C708    1.300   .     S
O654   C708    1.300   .     S
O654   Al700   1.899   .     S
C655   C709    1.370   .     A
C655   C1813   1.369   .     A
C656   Al698   1.899   .     S
C656   C782    1.300   .     S
O657   C710    1.300   .     S
O657   Al697   1.899   .     S
C658   C711    1.370   .     A
C658   C952    1.369   .     A
C659   Al700   1.899   .     S
C659   C712    1.300   .     S
O660   C712    1.300   .     S
O660   Al699   1.899   .     S
C661   C713    1.370   .     A
C661   C4111   1.369   1_554 A
C662   Al699   1.899   .     S
C662   C786    1.300   .     S
O663   C714    1.300   .     S
O663   Al700   1.899   .     S
C664   C715    1.370   .     A
C665   Al697   1.899   .     S
C665   C716    1.300   .     S
O666   C716    1.300   .     S
O666   Al698   1.899   .     S
C667   C789    1.370   .     A
C667   C4393   1.369   1_554 A
C668   Al700   1.899   .     S
C668   C718    1.300   .     S
O669   C790    1.300   .     S
O669   Al699   1.899   .     S
C670   C719    1.370   .     A
C671   Al698   1.899   .     S
C671   C720    1.300   .     S
O672   C720    1.300   .     S
O672   Al697   1.899   .     S
C673   C717    1.370   .     A
C673   C4435   1.369   1_554 A
C674   Al699   1.899   .     S
C674   C790    1.300   .     S
O675   C718    1.300   .     S
O675   Al700   1.899   .     S
C676   C719    1.370   .     A
C676   C694    1.369   .     A
C677   Al697   1.899   .     S
C677   C720    1.300   .     S
O678   C720    1.300   .     S
O678   Al698   1.899   .     S
C679   C785    1.370   .     A
C679   C4141   1.369   1_554 A
C680   Al700   1.899   .     S
C680   C714    1.300   .     S
O681   C786    1.300   .     S
O681   Al699   1.899   .     S
C682   C715    1.370   .     A
C683   Al698   1.899   .     S
C683   C716    1.300   .     S
O684   C716    1.300   .     S
O684   Al697   1.899   .     S
C685   C781    1.370   .     A
C685   C1831   1.369   .     A
C686   Al697   1.899   .     S
C686   C710    1.300   .     S
O687   C782    1.300   .     S
O687   Al698   1.899   .     S
C688   C711    1.370   .     A
C688   C970    1.369   .     A
C689   Al699   1.899   .     S
C689   C712    1.300   .     S
O690   C712    1.300   .     S
O690   Al700   1.899   .     S
C691   C705    1.370   .     A
C691   C1537   1.369   .     A
C692   Al698   1.899   .     S
C692   C778    1.300   .     S
O693   C706    1.300   .     S
O693   Al697   1.899   .     S
C694   C707    1.370   .     A
C695   Al700   1.899   .     S
C695   C708    1.300   .     S
O696   C708    1.300   .     S
O696   Al699   1.899   .     S
Al697  O701    1.959   .     S
Al697  O704    1.959   .     S
Al698  O773    1.959   .     S
Al698  O704    1.959   .     S
Al699  O775    1.959   .     S
Al699  O702    1.959   .     S
Al700  O703    1.959   .     S
Al700  O702    1.959   .     S
C705   C706    1.500   .     S
C707   C708    1.500   .     S
C709   C710    1.500   .     S
C711   C712    1.500   .     S
C713   C714    1.500   .     S
C715   C716    1.500   .     S
C717   C718    1.500   .     S
C719   C720    1.500   .     S
C721   C849    1.370   .     A
C721   C1603   1.369   .     A
C722   Al769   1.899   .     S
C722   C778    1.300   .     S
O723   C850    1.300   .     S
O723   Al770   1.899   .     S
C724   C779    1.370   .     A
C724   C742    1.369   .     A
C725   Al771   1.899   .     S
C725   C780    1.300   .     S
O726   C780    1.300   .     S
O726   Al772   1.899   .     S
C727   C781    1.370   .     A
C727   C1885   1.369   .     A
C728   Al770   1.899   .     S
C728   C854    1.300   .     S
O729   C782    1.300   .     S
O729   Al769   1.899   .     S
C730   C783    1.370   .     A
C730   C1024   1.369   .     A
C731   Al772   1.899   .     S
C731   C784    1.300   .     S
O732   C784    1.300   .     S
O732   Al771   1.899   .     S
C733   C785    1.370   .     A
C733   C4183   1.369   1_554 A
C734   Al771   1.899   .     S
C734   C858    1.300   .     S
O735   C786    1.300   .     S
O735   Al772   1.899   .     S
C736   C787    1.370   .     A
C737   Al769   1.899   .     S
C737   C788    1.300   .     S
O738   C788    1.300   .     S
O738   Al770   1.899   .     S
C739   C861    1.370   .     A
C739   C4465   1.369   1_554 A
C740   Al772   1.899   .     S
C740   C790    1.300   .     S
O741   C862    1.300   .     S
O741   Al771   1.899   .     S
C742   C791    1.370   .     A
C743   Al770   1.899   .     S
C743   C792    1.300   .     S
O744   C792    1.300   .     S
O744   Al769   1.899   .     S
C745   C789    1.370   .     A
C745   C4507   1.369   1_554 A
C746   Al771   1.899   .     S
C746   C862    1.300   .     S
O747   C790    1.300   .     S
O747   Al772   1.899   .     S
C748   C791    1.370   .     A
C748   C766    1.369   .     A
C749   Al769   1.899   .     S
C749   C792    1.300   .     S
O750   C792    1.300   .     S
O750   Al770   1.899   .     S
C751   C857    1.370   .     A
C751   C4213   1.369   1_554 A
C752   Al772   1.899   .     S
C752   C786    1.300   .     S
O753   C858    1.300   .     S
O753   Al771   1.899   .     S
C754   C787    1.370   .     A
C755   Al770   1.899   .     S
C755   C788    1.300   .     S
O756   C788    1.300   .     S
O756   Al769   1.899   .     S
C757   C853    1.370   .     A
C757   C1903   1.369   .     A
C758   Al769   1.899   .     S
C758   C782    1.300   .     S
O759   C854    1.300   .     S
O759   Al770   1.899   .     S
C760   C783    1.370   .     A
C760   C1042   1.369   .     A
C761   Al771   1.899   .     S
C761   C784    1.300   .     S
O762   C784    1.300   .     S
O762   Al772   1.899   .     S
C763   C777    1.370   .     A
C763   C1609   1.369   .     A
C764   Al770   1.899   .     S
C764   C850    1.300   .     S
O765   C778    1.300   .     S
O765   Al769   1.899   .     S
C766   C779    1.370   .     A
C767   Al772   1.899   .     S
C767   C780    1.300   .     S
O768   C780    1.300   .     S
O768   Al771   1.899   .     S
Al769  O773    1.959   .     S
Al769  O776    1.959   .     S
Al770  O845    1.959   .     S
Al770  O776    1.959   .     S
Al771  O847    1.959   .     S
Al771  O774    1.959   .     S
Al772  O775    1.959   .     S
Al772  O774    1.959   .     S
C777   C778    1.500   .     S
C779   C780    1.500   .     S
C781   C782    1.500   .     S
C783   C784    1.500   .     S
C785   C786    1.500   .     S
C787   C788    1.500   .     S
C789   C790    1.500   .     S
C791   C792    1.500   .     S
C793   C633    1.370   1_655 A
C793   C1675   1.369   .     A
C794   Al841   1.899   .     S
C794   C850    1.300   .     S
O795   C634    1.300   1_655 S
O795   Al842   1.899   .     S
C796   C851    1.370   .     A
C796   C814    1.369   .     A
C797   Al843   1.899   .     S
C797   C852    1.300   .     S
O798   C852    1.300   .     S
O798   Al844   1.899   .     S
C799   C853    1.370   .     A
C799   C1957   1.369   .     A
C800   Al842   1.899   .     S
C800   C638    1.300   1_655 S
O801   C854    1.300   .     S
O801   Al841   1.899   .     S
C802   C855    1.370   .     A
C802   C1096   1.369   .     A
C803   Al844   1.899   .     S
C803   C856    1.300   .     S
O804   C856    1.300   .     S
O804   Al843   1.899   .     S
C805   C857    1.370   .     A
C805   C4255   1.369   1_554 A
C806   Al843   1.899   .     S
C806   C642    1.300   1_655 S
O807   C858    1.300   .     S
O807   Al844   1.899   .     S
C808   C859    1.370   .     A
C809   Al841   1.899   .     S
C809   C860    1.300   .     S
O810   C860    1.300   .     S
O810   Al842   1.899   .     S
C811   C645    1.370   1_655 A
C811   C4537   1.369   1_554 A
C812   Al844   1.899   .     S
C812   C862    1.300   .     S
O813   C646    1.300   1_655 S
O813   Al843   1.899   .     S
C814   C863    1.370   .     A
C815   Al842   1.899   .     S
C815   C864    1.300   .     S
O816   C864    1.300   .     S
O816   Al841   1.899   .     S
C817   C861    1.370   .     A
C817   C4579   1.369   1_554 A
C818   Al843   1.899   .     S
C818   C646    1.300   1_655 S
O819   C862    1.300   .     S
O819   Al844   1.899   .     S
C820   C863    1.370   .     A
C820   C838    1.369   .     A
C821   Al841   1.899   .     S
C821   C864    1.300   .     S
O822   C864    1.300   .     S
O822   Al842   1.899   .     S
C823   C641    1.370   1_655 A
C823   C4285   1.369   1_554 A
C824   Al844   1.899   .     S
C824   C858    1.300   .     S
O825   C642    1.300   1_655 S
O825   Al843   1.899   .     S
C826   C859    1.370   .     A
C827   Al842   1.899   .     S
C827   C860    1.300   .     S
O828   C860    1.300   .     S
O828   Al841   1.899   .     S
C829   C637    1.370   1_655 A
C829   C1975   1.369   .     A
C830   Al841   1.899   .     S
C830   C854    1.300   .     S
O831   C638    1.300   1_655 S
O831   Al842   1.899   .     S
C832   C855    1.370   .     A
C832   C1114   1.369   .     A
C833   Al843   1.899   .     S
C833   C856    1.300   .     S
O834   C856    1.300   .     S
O834   Al844   1.899   .     S
C835   C849    1.370   .     A
C835   C1681   1.369   .     A
C836   Al842   1.899   .     S
C836   C634    1.300   1_655 S
O837   C850    1.300   .     S
O837   Al841   1.899   .     S
C838   C851    1.370   .     A
C839   Al844   1.899   .     S
C839   C852    1.300   .     S
O840   C852    1.300   .     S
O840   Al843   1.899   .     S
Al841  O845    1.959   .     S
Al841  O848    1.959   .     S
Al842  O629    1.959   1_655 S
Al842  O848    1.959   .     S
Al843  O631    1.959   1_655 S
Al843  O846    1.959   .     S
Al844  O847    1.959   .     S
Al844  O846    1.959   .     S
C849   C850    1.500   .     S
C851   C852    1.500   .     S
C853   C854    1.500   .     S
C855   C856    1.500   .     S
C857   C858    1.500   .     S
C859   C860    1.500   .     S
C861   C862    1.500   .     S
C863   C864    1.500   .     S
C865   C993    1.370   .     A
C865   C1747   1.369   .     A
C866   Al913   1.899   .     S
C866   C922    1.300   .     S
O867   C994    1.300   .     S
O867   Al914   1.899   .     S
C868   C923    1.370   .     A
C868   C886    1.369   .     A
C869   Al915   1.899   .     S
C869   C924    1.300   .     S
O870   C924    1.300   .     S
O870   Al916   1.899   .     S
C871   C925    1.370   .     A
C871   C2029   1.369   .     A
C872   Al914   1.899   .     S
C872   C998    1.300   .     S
O873   C926    1.300   .     S
O873   Al913   1.899   .     S
C874   C927    1.370   .     A
C874   C16     1.369   1_565 A
C875   Al916   1.899   .     S
C875   C928    1.300   .     S
O876   C928    1.300   .     S
O876   Al915   1.899   .     S
C877   C929    1.370   .     A
C877   C4327   1.369   1_554 A
C878   Al915   1.899   .     S
C878   C1002   1.300   .     S
O879   C930    1.300   .     S
O879   Al916   1.899   .     S
C880   C931    1.370   .     A
C881   Al913   1.899   .     S
C881   C932    1.300   .     S
O882   C932    1.300   .     S
O882   Al914   1.899   .     S
C883   C1005   1.370   .     A
C883   C3457   1.369   1_564 A
C884   Al916   1.899   .     S
C884   C934    1.300   .     S
O885   C1006   1.300   .     S
O885   Al915   1.899   .     S
C886   C935    1.370   .     A
C887   Al914   1.899   .     S
C887   C936    1.300   .     S
O888   C936    1.300   .     S
O888   Al913   1.899   .     S
C889   C933    1.370   .     A
C889   C3499   1.369   1_564 A
C890   Al915   1.899   .     S
C890   C1006   1.300   .     S
O891   C934    1.300   .     S
O891   Al916   1.899   .     S
C892   C935    1.370   .     A
C892   C910    1.369   .     A
C893   Al913   1.899   .     S
C893   C936    1.300   .     S
O894   C936    1.300   .     S
O894   Al914   1.899   .     S
C895   C1001   1.370   .     A
C895   C4357   1.369   1_554 A
C896   Al916   1.899   .     S
C896   C930    1.300   .     S
O897   C1002   1.300   .     S
O897   Al915   1.899   .     S
C898   C931    1.370   .     A
C899   Al914   1.899   .     S
C899   C932    1.300   .     S
O900   C932    1.300   .     S
O900   Al913   1.899   .     S
C901   C997    1.370   .     A
C901   C2047   1.369   .     A
C902   Al913   1.899   .     S
C902   C926    1.300   .     S
O903   C998    1.300   .     S
O903   Al914   1.899   .     S
C904   C927    1.370   .     A
C904   C34     1.369   1_565 A
C905   Al915   1.899   .     S
C905   C928    1.300   .     S
O906   C928    1.300   .     S
O906   Al916   1.899   .     S
C907   C921    1.370   .     A
C907   C1753   1.369   .     A
C908   Al914   1.899   .     S
C908   C994    1.300   .     S
O909   C922    1.300   .     S
O909   Al913   1.899   .     S
C910   C923    1.370   .     A
C911   Al916   1.899   .     S
C911   C924    1.300   .     S
O912   C924    1.300   .     S
O912   Al915   1.899   .     S
Al913  O917    1.959   .     S
Al913  O920    1.959   .     S
Al914  O989    1.959   .     S
Al914  O920    1.959   .     S
Al915  O991    1.959   .     S
Al915  O918    1.959   .     S
Al916  O919    1.959   .     S
Al916  O918    1.959   .     S
O917   Al1130  1.959   1_455 S
O919   Al1131  1.959   1_455 S
C921   C1081   1.370   1_455 A
C921   C922    1.500   .     S
C922   C1124   1.300   1_455 S
C922   O1083   1.300   1_455 S
C923   C924    1.500   .     S
C925   C1117   1.370   1_455 A
C925   C926    1.500   .     S
C926   C1088   1.300   1_455 S
C926   O1119   1.300   1_455 S
C927   C928    1.500   .     S
C929   C1111   1.370   1_455 A
C929   C930    1.500   .     S
C930   C1094   1.300   1_455 S
C930   O1113   1.300   1_455 S
C931   C932    1.500   .     S
C933   C1099   1.370   1_455 A
C933   C934    1.500   .     S
C934   C1106   1.300   1_455 S
C934   O1101   1.300   1_455 S
C935   C936    1.500   .     S
C937   C1065   1.370   .     A
C937   C1819   1.369   .     A
C938   Al985   1.899   .     S
C938   C994    1.300   .     S
O939   C1066   1.300   .     S
O939   Al986   1.899   .     S
C940   C995    1.370   .     A
C940   C958    1.369   .     A
C941   Al987   1.899   .     S
C941   C996    1.300   .     S
O942   C996    1.300   .     S
O942   Al988   1.899   .     S
C943   C997    1.370   .     A
C943   C2101   1.369   .     A
C944   Al986   1.899   .     S
C944   C1070   1.300   .     S
O945   C998    1.300   .     S
O945   Al985   1.899   .     S
C946   C999    1.370   .     A
C946   C88     1.369   1_565 A
C947   Al988   1.899   .     S
C947   C1000   1.300   .     S
O948   C1000   1.300   .     S
O948   Al987   1.899   .     S
C949   C1001   1.370   .     A
C949   C4399   1.369   1_554 A
C950   Al987   1.899   .     S
C950   C1074   1.300   .     S
O951   C1002   1.300   .     S
O951   Al988   1.899   .     S
C952   C1003   1.370   .     A
C953   Al985   1.899   .     S
C953   C1004   1.300   .     S
O954   C1004   1.300   .     S
O954   Al986   1.899   .     S
C955   C1077   1.370   .     A
C955   C3529   1.369   1_564 A
C956   Al988   1.899   .     S
C956   C1006   1.300   .     S
O957   C1078   1.300   .     S
O957   Al987   1.899   .     S
C958   C1007   1.370   .     A
C959   Al986   1.899   .     S
C959   C1008   1.300   .     S
O960   C1008   1.300   .     S
O960   Al985   1.899   .     S
C961   C1005   1.370   .     A
C961   C3571   1.369   1_564 A
C962   Al987   1.899   .     S
C962   C1078   1.300   .     S
O963   C1006   1.300   .     S
O963   Al988   1.899   .     S
C964   C1007   1.370   .     A
C964   C982    1.369   .     A
C965   Al985   1.899   .     S
C965   C1008   1.300   .     S
O966   C1008   1.300   .     S
O966   Al986   1.899   .     S
C967   C1073   1.370   .     A
C967   C4429   1.369   1_554 A
C968   Al988   1.899   .     S
C968   C1002   1.300   .     S
O969   C1074   1.300   .     S
O969   Al987   1.899   .     S
C970   C1003   1.370   .     A
C971   Al986   1.899   .     S
C971   C1004   1.300   .     S
O972   C1004   1.300   .     S
O972   Al985   1.899   .     S
C973   C1069   1.370   .     A
C973   C2119   1.369   .     A
C974   Al985   1.899   .     S
C974   C998    1.300   .     S
O975   C1070   1.300   .     S
O975   Al986   1.899   .     S
C976   C999    1.370   .     A
C976   C106    1.369   1_565 A
C977   Al987   1.899   .     S
C977   C1000   1.300   .     S
O978   C1000   1.300   .     S
O978   Al988   1.899   .     S
C979   C993    1.370   .     A
C979   C1825   1.369   .     A
C980   Al986   1.899   .     S
C980   C1066   1.300   .     S
O981   C994    1.300   .     S
O981   Al985   1.899   .     S
C982   C995    1.370   .     A
C983   Al988   1.899   .     S
C983   C996    1.300   .     S
O984   C996    1.300   .     S
O984   Al987   1.899   .     S
Al985  O989    1.959   .     S
Al985  O992    1.959   .     S
Al986  O1061   1.959   .     S
Al986  O992    1.959   .     S
Al987  O1063   1.959   .     S
Al987  O990    1.959   .     S
Al988  O991    1.959   .     S
Al988  O990    1.959   .     S
C993   C994    1.500   .     S
C995   C996    1.500   .     S
C997   C998    1.500   .     S
C999   C1000   1.500   .     S
C1001  C1002   1.500   .     S
C1003  C1004   1.500   .     S
C1005  C1006   1.500   .     S
C1007  C1008   1.500   .     S
C1009  C1137   1.370   .     A
C1009  C1891   1.369   .     A
C1010  Al1057  1.899   .     S
C1010  C1066   1.300   .     S
O1011  C1138   1.300   .     S
O1011  Al1058  1.899   .     S
C1012  C1067   1.370   .     A
C1012  C1030   1.369   .     A
C1013  Al1059  1.899   .     S
C1013  C1068   1.300   .     S
O1014  C1068   1.300   .     S
O1014  Al1060  1.899   .     S
C1015  C1069   1.370   .     A
C1015  C2173   1.369   .     A
C1016  Al1058  1.899   .     S
C1016  C1142   1.300   .     S
O1017  C1070   1.300   .     S
O1017  Al1057  1.899   .     S
C1018  C1071   1.370   .     A
C1018  C160    1.369   1_565 A
C1019  Al1060  1.899   .     S
C1019  C1072   1.300   .     S
O1020  C1072   1.300   .     S
O1020  Al1059  1.899   .     S
C1021  C1073   1.370   .     A
C1021  C4471   1.369   1_554 A
C1022  Al1059  1.899   .     S
C1022  C1146   1.300   .     S
O1023  C1074   1.300   .     S
O1023  Al1060  1.899   .     S
C1024  C1075   1.370   .     A
C1025  Al1057  1.899   .     S
C1025  C1076   1.300   .     S
O1026  C1076   1.300   .     S
O1026  Al1058  1.899   .     S
C1027  C1149   1.370   .     A
C1027  C3601   1.369   1_564 A
C1028  Al1060  1.899   .     S
C1028  C1078   1.300   .     S
O1029  C1150   1.300   .     S
O1029  Al1059  1.899   .     S
C1030  C1079   1.370   .     A
C1031  Al1058  1.899   .     S
C1031  C1080   1.300   .     S
O1032  C1080   1.300   .     S
O1032  Al1057  1.899   .     S
C1033  C1077   1.370   .     A
C1033  C3643   1.369   1_564 A
C1034  Al1059  1.899   .     S
C1034  C1150   1.300   .     S
O1035  C1078   1.300   .     S
O1035  Al1060  1.899   .     S
C1036  C1079   1.370   .     A
C1036  C1054   1.369   .     A
C1037  Al1057  1.899   .     S
C1037  C1080   1.300   .     S
O1038  C1080   1.300   .     S
O1038  Al1058  1.899   .     S
C1039  C1145   1.370   .     A
C1039  C4501   1.369   1_554 A
C1040  Al1060  1.899   .     S
C1040  C1074   1.300   .     S
O1041  C1146   1.300   .     S
O1041  Al1059  1.899   .     S
C1042  C1075   1.370   .     A
C1043  Al1058  1.899   .     S
C1043  C1076   1.300   .     S
O1044  C1076   1.300   .     S
O1044  Al1057  1.899   .     S
C1045  C1141   1.370   .     A
C1045  C2191   1.369   .     A
C1046  Al1057  1.899   .     S
C1046  C1070   1.300   .     S
O1047  C1142   1.300   .     S
O1047  Al1058  1.899   .     S
C1048  C1071   1.370   .     A
C1048  C178    1.369   1_565 A
C1049  Al1059  1.899   .     S
C1049  C1072   1.300   .     S
O1050  C1072   1.300   .     S
O1050  Al1060  1.899   .     S
C1051  C1065   1.370   .     A
C1051  C1897   1.369   .     A
C1052  Al1058  1.899   .     S
C1052  C1138   1.300   .     S
O1053  C1066   1.300   .     S
O1053  Al1057  1.899   .     S
C1054  C1067   1.370   .     A
C1055  Al1060  1.899   .     S
C1055  C1068   1.300   .     S
O1056  C1068   1.300   .     S
O1056  Al1059  1.899   .     S
Al1057 O1061   1.959   .     S
Al1057 O1064   1.959   .     S
Al1058 O1133   1.959   .     S
Al1058 O1064   1.959   .     S
Al1059 O1135   1.959   .     S
Al1059 O1062   1.959   .     S
Al1060 O1063   1.959   .     S
Al1060 O1062   1.959   .     S
C1065  C1066   1.500   .     S
C1067  C1068   1.500   .     S
C1069  C1070   1.500   .     S
C1071  C1072   1.500   .     S
C1073  C1074   1.500   .     S
C1075  C1076   1.500   .     S
C1077  C1078   1.500   .     S
C1079  C1080   1.500   .     S
C1081  C921    1.370   1_655 A
C1081  C1963   1.369   .     A
C1082  Al1129  1.899   .     S
C1082  C1138   1.300   .     S
O1083  C922    1.300   1_655 S
O1083  Al1130  1.899   .     S
C1084  C1139   1.370   .     A
C1084  C1102   1.369   .     A
C1085  Al1131  1.899   .     S
C1085  C1140   1.300   .     S
O1086  C1140   1.300   .     S
O1086  Al1132  1.899   .     S
C1087  C1141   1.370   .     A
C1087  C2245   1.369   .     A
C1088  Al1130  1.899   .     S
C1088  C926    1.300   1_655 S
O1089  C1142   1.300   .     S
O1089  Al1129  1.899   .     S
C1090  C1143   1.370   .     A
C1090  C232    1.369   1_565 A
C1091  Al1132  1.899   .     S
C1091  C1144   1.300   .     S
O1092  C1144   1.300   .     S
O1092  Al1131  1.899   .     S
C1093  C1145   1.370   .     A
C1093  C4543   1.369   1_554 A
C1094  Al1131  1.899   .     S
C1094  C930    1.300   1_655 S
O1095  C1146   1.300   .     S
O1095  Al1132  1.899   .     S
C1096  C1147   1.370   .     A
C1097  Al1129  1.899   .     S
C1097  C1148   1.300   .     S
O1098  C1148   1.300   .     S
O1098  Al1130  1.899   .     S
C1099  C933    1.370   1_655 A
C1099  C3673   1.369   1_564 A
C1100  Al1132  1.899   .     S
C1100  C1150   1.300   .     S
O1101  C934    1.300   1_655 S
O1101  Al1131  1.899   .     S
C1102  C1151   1.370   .     A
C1103  Al1130  1.899   .     S
C1103  C1152   1.300   .     S
O1104  C1152   1.300   .     S
O1104  Al1129  1.899   .     S
C1105  C1149   1.370   .     A
C1105  C3715   1.369   1_564 A
C1106  Al1131  1.899   .     S
C1106  C934    1.300   1_655 S
O1107  C1150   1.300   .     S
O1107  Al1132  1.899   .     S
C1108  C1151   1.370   .     A
C1108  C1126   1.369   .     A
C1109  Al1129  1.899   .     S
C1109  C1152   1.300   .     S
O1110  C1152   1.300   .     S
O1110  Al1130  1.899   .     S
C1111  C929    1.370   1_655 A
C1111  C4573   1.369   1_554 A
C1112  Al1132  1.899   .     S
C1112  C1146   1.300   .     S
O1113  C930    1.300   1_655 S
O1113  Al1131  1.899   .     S
C1114  C1147   1.370   .     A
C1115  Al1130  1.899   .     S
C1115  C1148   1.300   .     S
O1116  C1148   1.300   .     S
O1116  Al1129  1.899   .     S
C1117  C925    1.370   1_655 A
C1117  C2263   1.369   .     A
C1118  Al1129  1.899   .     S
C1118  C1142   1.300   .     S
O1119  C926    1.300   1_655 S
O1119  Al1130  1.899   .     S
C1120  C1143   1.370   .     A
C1120  C250    1.369   1_565 A
C1121  Al1131  1.899   .     S
C1121  C1144   1.300   .     S
O1122  C1144   1.300   .     S
O1122  Al1132  1.899   .     S
C1123  C1137   1.370   .     A
C1123  C1969   1.369   .     A
C1124  Al1130  1.899   .     S
C1124  C922    1.300   1_655 S
O1125  C1138   1.300   .     S
O1125  Al1129  1.899   .     S
C1126  C1139   1.370   .     A
C1127  Al1132  1.899   .     S
C1127  C1140   1.300   .     S
O1128  C1140   1.300   .     S
O1128  Al1131  1.899   .     S
Al1129 O1133   1.959   .     S
Al1129 O1136   1.959   .     S
Al1130 O917    1.959   1_655 S
Al1130 O1136   1.959   .     S
Al1131 O919    1.959   1_655 S
Al1131 O1134   1.959   .     S
Al1132 O1135   1.959   .     S
Al1132 O1134   1.959   .     S
C1137  C1138   1.500   .     S
C1139  C1140   1.500   .     S
C1141  C1142   1.500   .     S
C1143  C1144   1.500   .     S
C1145  C1146   1.500   .     S
C1147  C1148   1.500   .     S
C1149  C1150   1.500   .     S
C1151  C1152   1.500   .     S
C1153  C1281   1.370   .     A
C1153  C3187   1.369   1_545 A
C1154  Al1201  1.899   .     S
C1154  C1210   1.300   .     S
O1155  C1282   1.300   .     S
O1155  Al1202  1.899   .     S
C1156  C1211   1.370   .     A
C1156  C1174   1.369   .     A
C1157  Al1203  1.899   .     S
C1157  C1212   1.300   .     S
O1158  C1212   1.300   .     S
O1158  Al1204  1.899   .     S
C1159  C1213   1.370   .     A
C1159  C2317   1.369   .     A
C1160  Al1202  1.899   .     S
C1160  C1286   1.300   .     S
O1161  C1214   1.300   .     S
O1161  Al1201  1.899   .     S
C1162  C1215   1.370   .     A
C1162  C1456   1.369   .     A
C1163  Al1204  1.899   .     S
C1163  C1216   1.300   .     S
O1164  C1216   1.300   .     S
O1164  Al1203  1.899   .     S
C1165  C1217   1.370   .     A
C1166  Al1203  1.899   .     S
C1166  C1290   1.300   .     S
O1167  C1218   1.300   .     S
O1167  Al1204  1.899   .     S
C1168  C1219   1.370   .     A
C1168  C2026   1.369   1_545 A
C1169  Al1201  1.899   .     S
C1169  C1220   1.300   .     S
O1170  C1220   1.300   .     S
O1170  Al1202  1.899   .     S
C1171  C1293   1.370   .     A
C1172  Al1204  1.899   .     S
C1172  C1222   1.300   .     S
O1173  C1294   1.300   .     S
O1173  Al1203  1.899   .     S
C1174  C1223   1.370   .     A
C1175  Al1202  1.899   .     S
C1175  C1224   1.300   .     S
O1176  C1224   1.300   .     S
O1176  Al1201  1.899   .     S
C1177  C1221   1.370   .     A
C1178  Al1203  1.899   .     S
C1178  C1294   1.300   .     S
O1179  C1222   1.300   .     S
O1179  Al1204  1.899   .     S
C1180  C1223   1.370   .     A
C1180  C1198   1.369   .     A
C1181  Al1201  1.899   .     S
C1181  C1224   1.300   .     S
O1182  C1224   1.300   .     S
O1182  Al1202  1.899   .     S
C1183  C1289   1.370   .     A
C1184  Al1204  1.899   .     S
C1184  C1218   1.300   .     S
O1185  C1290   1.300   .     S
O1185  Al1203  1.899   .     S
C1186  C1219   1.370   .     A
C1186  C2056   1.369   1_545 A
C1187  Al1202  1.899   .     S
C1187  C1220   1.300   .     S
O1188  C1220   1.300   .     S
O1188  Al1201  1.899   .     S
C1189  C1285   1.370   .     A
C1189  C2335   1.369   .     A
C1190  Al1201  1.899   .     S
C1190  C1214   1.300   .     S
O1191  C1286   1.300   .     S
O1191  Al1202  1.899   .     S
C1192  C1215   1.370   .     A
C1192  C1474   1.369   .     A
C1193  Al1203  1.899   .     S
C1193  C1216   1.300   .     S
O1194  C1216   1.300   .     S
O1194  Al1204  1.899   .     S
C1195  C1209   1.370   .     A
C1195  C3193   1.369   1_545 A
C1196  Al1202  1.899   .     S
C1196  C1282   1.300   .     S
O1197  C1210   1.300   .     S
O1197  Al1201  1.899   .     S
C1198  C1211   1.370   .     A
C1199  Al1204  1.899   .     S
C1199  C1212   1.300   .     S
O1200  C1212   1.300   .     S
O1200  Al1203  1.899   .     S
Al1201 O1205   1.959   .     S
Al1201 O1208   1.959   .     S
Al1202 O1277   1.959   .     S
Al1202 O1208   1.959   .     S
Al1203 O1279   1.959   .     S
Al1203 O1206   1.959   .     S
Al1204 O1207   1.959   .     S
Al1204 O1206   1.959   .     S
O1205  Al1418  1.959   1_455 S
O1207  Al1419  1.959   1_455 S
C1209  C1369   1.370   1_455 A
C1209  C1210   1.500   .     S
C1210  C1412   1.300   1_455 S
C1210  O1371   1.300   1_455 S
C1211  C1212   1.500   .     S
C1213  C1405   1.370   1_455 A
C1213  C1214   1.500   .     S
C1214  C1376   1.300   1_455 S
C1214  O1407   1.300   1_455 S
C1215  C1216   1.500   .     S
C1217  C1399   1.370   1_455 A
C1217  C1218   1.500   .     S
C1218  C1382   1.300   1_455 S
C1218  O1401   1.300   1_455 S
C1219  C1220   1.500   .     S
C1221  C1387   1.370   1_455 A
C1221  C1222   1.500   .     S
C1222  C1394   1.300   1_455 S
C1222  O1389   1.300   1_455 S
C1223  C1224   1.500   .     S
C1225  C1353   1.370   .     A
C1225  C3259   1.369   1_545 A
C1226  Al1273  1.899   .     S
C1226  C1282   1.300   .     S
O1227  C1354   1.300   .     S
O1227  Al1274  1.899   .     S
C1228  C1283   1.370   .     A
C1228  C1246   1.369   .     A
C1229  Al1275  1.899   .     S
C1229  C1284   1.300   .     S
O1230  C1284   1.300   .     S
O1230  Al1276  1.899   .     S
C1231  C1285   1.370   .     A
C1231  C2389   1.369   .     A
C1232  Al1274  1.899   .     S
C1232  C1358   1.300   .     S
O1233  C1286   1.300   .     S
O1233  Al1273  1.899   .     S
C1234  C1287   1.370   .     A
C1234  C1528   1.369   .     A
C1235  Al1276  1.899   .     S
C1235  C1288   1.300   .     S
O1236  C1288   1.300   .     S
O1236  Al1275  1.899   .     S
C1237  C1289   1.370   .     A
C1238  Al1275  1.899   .     S
C1238  C1362   1.300   .     S
O1239  C1290   1.300   .     S
O1239  Al1276  1.899   .     S
C1240  C1291   1.370   .     A
C1240  C2098   1.369   1_545 A
C1241  Al1273  1.899   .     S
C1241  C1292   1.300   .     S
O1242  C1292   1.300   .     S
O1242  Al1274  1.899   .     S
C1243  C1365   1.370   .     A
C1244  Al1276  1.899   .     S
C1244  C1294   1.300   .     S
O1245  C1366   1.300   .     S
O1245  Al1275  1.899   .     S
C1246  C1295   1.370   .     A
C1247  Al1274  1.899   .     S
C1247  C1296   1.300   .     S
O1248  C1296   1.300   .     S
O1248  Al1273  1.899   .     S
C1249  C1293   1.370   .     A
C1250  Al1275  1.899   .     S
C1250  C1366   1.300   .     S
O1251  C1294   1.300   .     S
O1251  Al1276  1.899   .     S
C1252  C1295   1.370   .     A
C1252  C1270   1.369   .     A
C1253  Al1273  1.899   .     S
C1253  C1296   1.300   .     S
O1254  C1296   1.300   .     S
O1254  Al1274  1.899   .     S
C1255  C1361   1.370   .     A
C1256  Al1276  1.899   .     S
C1256  C1290   1.300   .     S
O1257  C1362   1.300   .     S
O1257  Al1275  1.899   .     S
C1258  C1291   1.370   .     A
C1258  C2128   1.369   1_545 A
C1259  Al1274  1.899   .     S
C1259  C1292   1.300   .     S
O1260  C1292   1.300   .     S
O1260  Al1273  1.899   .     S
C1261  C1357   1.370   .     A
C1261  C2407   1.369   .     A
C1262  Al1273  1.899   .     S
C1262  C1286   1.300   .     S
O1263  C1358   1.300   .     S
O1263  Al1274  1.899   .     S
C1264  C1287   1.370   .     A
C1264  C1546   1.369   .     A
C1265  Al1275  1.899   .     S
C1265  C1288   1.300   .     S
O1266  C1288   1.300   .     S
O1266  Al1276  1.899   .     S
C1267  C1281   1.370   .     A
C1267  C3265   1.369   1_545 A
C1268  Al1274  1.899   .     S
C1268  C1354   1.300   .     S
O1269  C1282   1.300   .     S
O1269  Al1273  1.899   .     S
C1270  C1283   1.370   .     A
C1271  Al1276  1.899   .     S
C1271  C1284   1.300   .     S
O1272  C1284   1.300   .     S
O1272  Al1275  1.899   .     S
Al1273 O1277   1.959   .     S
Al1273 O1280   1.959   .     S
Al1274 O1349   1.959   .     S
Al1274 O1280   1.959   .     S
Al1275 O1351   1.959   .     S
Al1275 O1278   1.959   .     S
Al1276 O1279   1.959   .     S
Al1276 O1278   1.959   .     S
C1281  C1282   1.500   .     S
C1283  C1284   1.500   .     S
C1285  C1286   1.500   .     S
C1287  C1288   1.500   .     S
C1289  C1290   1.500   .     S
C1291  C1292   1.500   .     S
C1293  C1294   1.500   .     S
C1295  C1296   1.500   .     S
C1297  C1425   1.370   .     A
C1297  C3331   1.369   1_545 A
C1298  Al1345  1.899   .     S
C1298  C1354   1.300   .     S
O1299  C1426   1.300   .     S
O1299  Al1346  1.899   .     S
C1300  C1355   1.370   .     A
C1300  C1318   1.369   .     A
C1301  Al1347  1.899   .     S
C1301  C1356   1.300   .     S
O1302  C1356   1.300   .     S
O1302  Al1348  1.899   .     S
C1303  C1357   1.370   .     A
C1303  C2461   1.369   .     A
C1304  Al1346  1.899   .     S
C1304  C1430   1.300   .     S
O1305  C1358   1.300   .     S
O1305  Al1345  1.899   .     S
C1306  C1359   1.370   .     A
C1306  C1600   1.369   .     A
C1307  Al1348  1.899   .     S
C1307  C1360   1.300   .     S
O1308  C1360   1.300   .     S
O1308  Al1347  1.899   .     S
C1309  C1361   1.370   .     A
C1310  Al1347  1.899   .     S
C1310  C1434   1.300   .     S
O1311  C1362   1.300   .     S
O1311  Al1348  1.899   .     S
C1312  C1363   1.370   .     A
C1312  C2170   1.369   1_545 A
C1313  Al1345  1.899   .     S
C1313  C1364   1.300   .     S
O1314  C1364   1.300   .     S
O1314  Al1346  1.899   .     S
C1315  C1437   1.370   .     A
C1316  Al1348  1.899   .     S
C1316  C1366   1.300   .     S
O1317  C1438   1.300   .     S
O1317  Al1347  1.899   .     S
C1318  C1367   1.370   .     A
C1319  Al1346  1.899   .     S
C1319  C1368   1.300   .     S
O1320  C1368   1.300   .     S
O1320  Al1345  1.899   .     S
C1321  C1365   1.370   .     A
C1322  Al1347  1.899   .     S
C1322  C1438   1.300   .     S
O1323  C1366   1.300   .     S
O1323  Al1348  1.899   .     S
C1324  C1367   1.370   .     A
C1324  C1342   1.369   .     A
C1325  Al1345  1.899   .     S
C1325  C1368   1.300   .     S
O1326  C1368   1.300   .     S
O1326  Al1346  1.899   .     S
C1327  C1433   1.370   .     A
C1328  Al1348  1.899   .     S
C1328  C1362   1.300   .     S
O1329  C1434   1.300   .     S
O1329  Al1347  1.899   .     S
C1330  C1363   1.370   .     A
C1330  C2200   1.369   1_545 A
C1331  Al1346  1.899   .     S
C1331  C1364   1.300   .     S
O1332  C1364   1.300   .     S
O1332  Al1345  1.899   .     S
C1333  C1429   1.370   .     A
C1333  C2479   1.369   .     A
C1334  Al1345  1.899   .     S
C1334  C1358   1.300   .     S
O1335  C1430   1.300   .     S
O1335  Al1346  1.899   .     S
C1336  C1359   1.370   .     A
C1336  C1618   1.369   .     A
C1337  Al1347  1.899   .     S
C1337  C1360   1.300   .     S
O1338  C1360   1.300   .     S
O1338  Al1348  1.899   .     S
C1339  C1353   1.370   .     A
C1339  C3337   1.369   1_545 A
C1340  Al1346  1.899   .     S
C1340  C1426   1.300   .     S
O1341  C1354   1.300   .     S
O1341  Al1345  1.899   .     S
C1342  C1355   1.370   .     A
C1343  Al1348  1.899   .     S
C1343  C1356   1.300   .     S
O1344  C1356   1.300   .     S
O1344  Al1347  1.899   .     S
Al1345 O1349   1.959   .     S
Al1345 O1352   1.959   .     S
Al1346 O1421   1.959   .     S
Al1346 O1352   1.959   .     S
Al1347 O1423   1.959   .     S
Al1347 O1350   1.959   .     S
Al1348 O1351   1.959   .     S
Al1348 O1350   1.959   .     S
C1353  C1354   1.500   .     S
C1355  C1356   1.500   .     S
C1357  C1358   1.500   .     S
C1359  C1360   1.500   .     S
C1361  C1362   1.500   .     S
C1363  C1364   1.500   .     S
C1365  C1366   1.500   .     S
C1367  C1368   1.500   .     S
C1369  C1209   1.370   1_655 A
C1369  C3403   1.369   1_545 A
C1370  Al1417  1.899   .     S
C1370  C1426   1.300   .     S
O1371  C1210   1.300   1_655 S
O1371  Al1418  1.899   .     S
C1372  C1427   1.370   .     A
C1372  C1390   1.369   .     A
C1373  Al1419  1.899   .     S
C1373  C1428   1.300   .     S
O1374  C1428   1.300   .     S
O1374  Al1420  1.899   .     S
C1375  C1429   1.370   .     A
C1375  C2533   1.369   .     A
C1376  Al1418  1.899   .     S
C1376  C1214   1.300   1_655 S
O1377  C1430   1.300   .     S
O1377  Al1417  1.899   .     S
C1378  C1431   1.370   .     A
C1378  C1672   1.369   .     A
C1379  Al1420  1.899   .     S
C1379  C1432   1.300   .     S
O1380  C1432   1.300   .     S
O1380  Al1419  1.899   .     S
C1381  C1433   1.370   .     A
C1382  Al1419  1.899   .     S
C1382  C1218   1.300   1_655 S
O1383  C1434   1.300   .     S
O1383  Al1420  1.899   .     S
C1384  C1435   1.370   .     A
C1384  C2242   1.369   1_545 A
C1385  Al1417  1.899   .     S
C1385  C1436   1.300   .     S
O1386  C1436   1.300   .     S
O1386  Al1418  1.899   .     S
C1387  C1221   1.370   1_655 A
C1388  Al1420  1.899   .     S
C1388  C1438   1.300   .     S
O1389  C1222   1.300   1_655 S
O1389  Al1419  1.899   .     S
C1390  C1439   1.370   .     A
C1391  Al1418  1.899   .     S
C1391  C1440   1.300   .     S
O1392  C1440   1.300   .     S
O1392  Al1417  1.899   .     S
C1393  C1437   1.370   .     A
C1394  Al1419  1.899   .     S
C1394  C1222   1.300   1_655 S
O1395  C1438   1.300   .     S
O1395  Al1420  1.899   .     S
C1396  C1439   1.370   .     A
C1396  C1414   1.369   .     A
C1397  Al1417  1.899   .     S
C1397  C1440   1.300   .     S
O1398  C1440   1.300   .     S
O1398  Al1418  1.899   .     S
C1399  C1217   1.370   1_655 A
C1400  Al1420  1.899   .     S
C1400  C1434   1.300   .     S
O1401  C1218   1.300   1_655 S
O1401  Al1419  1.899   .     S
C1402  C1435   1.370   .     A
C1402  C2272   1.369   1_545 A
C1403  Al1418  1.899   .     S
C1403  C1436   1.300   .     S
O1404  C1436   1.300   .     S
O1404  Al1417  1.899   .     S
C1405  C1213   1.370   1_655 A
C1405  C2551   1.369   .     A
C1406  Al1417  1.899   .     S
C1406  C1430   1.300   .     S
O1407  C1214   1.300   1_655 S
O1407  Al1418  1.899   .     S
C1408  C1431   1.370   .     A
C1408  C1690   1.369   .     A
C1409  Al1419  1.899   .     S
C1409  C1432   1.300   .     S
O1410  C1432   1.300   .     S
O1410  Al1420  1.899   .     S
C1411  C1425   1.370   .     A
C1411  C3409   1.369   1_545 A
C1412  Al1418  1.899   .     S
C1412  C1210   1.300   1_655 S
O1413  C1426   1.300   .     S
O1413  Al1417  1.899   .     S
C1414  C1427   1.370   .     A
C1415  Al1420  1.899   .     S
C1415  C1428   1.300   .     S
O1416  C1428   1.300   .     S
O1416  Al1419  1.899   .     S
Al1417 O1421   1.959   .     S
Al1417 O1424   1.959   .     S
Al1418 O1205   1.959   1_655 S
Al1418 O1424   1.959   .     S
Al1419 O1207   1.959   1_655 S
Al1419 O1422   1.959   .     S
Al1420 O1423   1.959   .     S
Al1420 O1422   1.959   .     S
C1425  C1426   1.500   .     S
C1427  C1428   1.500   .     S
C1429  C1430   1.500   .     S
C1431  C1432   1.500   .     S
C1433  C1434   1.500   .     S
C1435  C1436   1.500   .     S
C1437  C1438   1.500   .     S
C1439  C1440   1.500   .     S
C1441  C1569   1.370   .     A
C1441  C2323   1.369   .     A
C1442  Al1489  1.899   .     S
C1442  C1498   1.300   .     S
O1443  C1570   1.300   .     S
O1443  Al1490  1.899   .     S
C1444  C1499   1.370   .     A
C1444  C1462   1.369   .     A
C1445  Al1491  1.899   .     S
C1445  C1500   1.300   .     S
O1446  C1500   1.300   .     S
O1446  Al1492  1.899   .     S
C1447  C1501   1.370   .     A
C1447  C2605   1.369   .     A
C1448  Al1490  1.899   .     S
C1448  C1574   1.300   .     S
O1449  C1502   1.300   .     S
O1449  Al1489  1.899   .     S
C1450  C1503   1.370   .     A
C1450  C1744   1.369   .     A
C1451  Al1492  1.899   .     S
C1451  C1504   1.300   .     S
O1452  C1504   1.300   .     S
O1452  Al1491  1.899   .     S
C1453  C1505   1.370   .     A
C1454  Al1491  1.899   .     S
C1454  C1578   1.300   .     S
O1455  C1506   1.300   .     S
O1455  Al1492  1.899   .     S
C1456  C1507   1.370   .     A
C1457  Al1489  1.899   .     S
C1457  C1508   1.300   .     S
O1458  C1508   1.300   .     S
O1458  Al1490  1.899   .     S
C1459  C1581   1.370   .     A
C1460  Al1492  1.899   .     S
C1460  C1510   1.300   .     S
O1461  C1582   1.300   .     S
O1461  Al1491  1.899   .     S
C1462  C1511   1.370   .     A
C1463  Al1490  1.899   .     S
C1463  C1512   1.300   .     S
O1464  C1512   1.300   .     S
O1464  Al1489  1.899   .     S
C1465  C1509   1.370   .     A
C1466  Al1491  1.899   .     S
C1466  C1582   1.300   .     S
O1467  C1510   1.300   .     S
O1467  Al1492  1.899   .     S
C1468  C1511   1.370   .     A
C1468  C1486   1.369   .     A
C1469  Al1489  1.899   .     S
C1469  C1512   1.300   .     S
O1470  C1512   1.300   .     S
O1470  Al1490  1.899   .     S
C1471  C1577   1.370   .     A
C1472  Al1492  1.899   .     S
C1472  C1506   1.300   .     S
O1473  C1578   1.300   .     S
O1473  Al1491  1.899   .     S
C1474  C1507   1.370   .     A
C1475  Al1490  1.899   .     S
C1475  C1508   1.300   .     S
O1476  C1508   1.300   .     S
O1476  Al1489  1.899   .     S
C1477  C1573   1.370   .     A
C1477  C2623   1.369   .     A
C1478  Al1489  1.899   .     S
C1478  C1502   1.300   .     S
O1479  C1574   1.300   .     S
O1479  Al1490  1.899   .     S
C1480  C1503   1.370   .     A
C1480  C1762   1.369   .     A
C1481  Al1491  1.899   .     S
C1481  C1504   1.300   .     S
O1482  C1504   1.300   .     S
O1482  Al1492  1.899   .     S
C1483  C1497   1.370   .     A
C1483  C2329   1.369   .     A
C1484  Al1490  1.899   .     S
C1484  C1570   1.300   .     S
O1485  C1498   1.300   .     S
O1485  Al1489  1.899   .     S
C1486  C1499   1.370   .     A
C1487  Al1492  1.899   .     S
C1487  C1500   1.300   .     S
O1488  C1500   1.300   .     S
O1488  Al1491  1.899   .     S
Al1489 O1493   1.959   .     S
Al1489 O1496   1.959   .     S
Al1490 O1565   1.959   .     S
Al1490 O1496   1.959   .     S
Al1491 O1567   1.959   .     S
Al1491 O1494   1.959   .     S
Al1492 O1495   1.959   .     S
Al1492 O1494   1.959   .     S
O1493  Al1706  1.959   1_455 S
O1495  Al1707  1.959   1_455 S
C1497  C1657   1.370   1_455 A
C1497  C1498   1.500   .     S
C1498  C1700   1.300   1_455 S
C1498  O1659   1.300   1_455 S
C1499  C1500   1.500   .     S
C1501  C1693   1.370   1_455 A
C1501  C1502   1.500   .     S
C1502  C1664   1.300   1_455 S
C1502  O1695   1.300   1_455 S
C1503  C1504   1.500   .     S
C1505  C1687   1.370   1_455 A
C1505  C1506   1.500   .     S
C1506  C1670   1.300   1_455 S
C1506  O1689   1.300   1_455 S
C1507  C1508   1.500   .     S
C1509  C1675   1.370   1_455 A
C1509  C1510   1.500   .     S
C1510  C1682   1.300   1_455 S
C1510  O1677   1.300   1_455 S
C1511  C1512   1.500   .     S
C1513  C1641   1.370   .     A
C1513  C2395   1.369   .     A
C1514  Al1561  1.899   .     S
C1514  C1570   1.300   .     S
O1515  C1642   1.300   .     S
O1515  Al1562  1.899   .     S
C1516  C1571   1.370   .     A
C1516  C1534   1.369   .     A
C1517  Al1563  1.899   .     S
C1517  C1572   1.300   .     S
O1518  C1572   1.300   .     S
O1518  Al1564  1.899   .     S
C1519  C1573   1.370   .     A
C1519  C2677   1.369   .     A
C1520  Al1562  1.899   .     S
C1520  C1646   1.300   .     S
O1521  C1574   1.300   .     S
O1521  Al1561  1.899   .     S
C1522  C1575   1.370   .     A
C1522  C1816   1.369   .     A
C1523  Al1564  1.899   .     S
C1523  C1576   1.300   .     S
O1524  C1576   1.300   .     S
O1524  Al1563  1.899   .     S
C1525  C1577   1.370   .     A
C1526  Al1563  1.899   .     S
C1526  C1650   1.300   .     S
O1527  C1578   1.300   .     S
O1527  Al1564  1.899   .     S
C1528  C1579   1.370   .     A
C1529  Al1561  1.899   .     S
C1529  C1580   1.300   .     S
O1530  C1580   1.300   .     S
O1530  Al1562  1.899   .     S
C1531  C1653   1.370   .     A
C1532  Al1564  1.899   .     S
C1532  C1582   1.300   .     S
O1533  C1654   1.300   .     S
O1533  Al1563  1.899   .     S
C1534  C1583   1.370   .     A
C1535  Al1562  1.899   .     S
C1535  C1584   1.300   .     S
O1536  C1584   1.300   .     S
O1536  Al1561  1.899   .     S
C1537  C1581   1.370   .     A
C1538  Al1563  1.899   .     S
C1538  C1654   1.300   .     S
O1539  C1582   1.300   .     S
O1539  Al1564  1.899   .     S
C1540  C1583   1.370   .     A
C1540  C1558   1.369   .     A
C1541  Al1561  1.899   .     S
C1541  C1584   1.300   .     S
O1542  C1584   1.300   .     S
O1542  Al1562  1.899   .     S
C1543  C1649   1.370   .     A
C1544  Al1564  1.899   .     S
C1544  C1578   1.300   .     S
O1545  C1650   1.300   .     S
O1545  Al1563  1.899   .     S
C1546  C1579   1.370   .     A
C1547  Al1562  1.899   .     S
C1547  C1580   1.300   .     S
O1548  C1580   1.300   .     S
O1548  Al1561  1.899   .     S
C1549  C1645   1.370   .     A
C1549  C2695   1.369   .     A
C1550  Al1561  1.899   .     S
C1550  C1574   1.300   .     S
O1551  C1646   1.300   .     S
O1551  Al1562  1.899   .     S
C1552  C1575   1.370   .     A
C1552  C1834   1.369   .     A
C1553  Al1563  1.899   .     S
C1553  C1576   1.300   .     S
O1554  C1576   1.300   .     S
O1554  Al1564  1.899   .     S
C1555  C1569   1.370   .     A
C1555  C2401   1.369   .     A
C1556  Al1562  1.899   .     S
C1556  C1642   1.300   .     S
O1557  C1570   1.300   .     S
O1557  Al1561  1.899   .     S
C1558  C1571   1.370   .     A
C1559  Al1564  1.899   .     S
C1559  C1572   1.300   .     S
O1560  C1572   1.300   .     S
O1560  Al1563  1.899   .     S
Al1561 O1565   1.959   .     S
Al1561 O1568   1.959   .     S
Al1562 O1637   1.959   .     S
Al1562 O1568   1.959   .     S
Al1563 O1639   1.959   .     S
Al1563 O1566   1.959   .     S
Al1564 O1567   1.959   .     S
Al1564 O1566   1.959   .     S
C1569  C1570   1.500   .     S
C1571  C1572   1.500   .     S
C1573  C1574   1.500   .     S
C1575  C1576   1.500   .     S
C1577  C1578   1.500   .     S
C1579  C1580   1.500   .     S
C1581  C1582   1.500   .     S
C1583  C1584   1.500   .     S
C1585  C1713   1.370   .     A
C1585  C2467   1.369   .     A
C1586  Al1633  1.899   .     S
C1586  C1642   1.300   .     S
O1587  C1714   1.300   .     S
O1587  Al1634  1.899   .     S
C1588  C1643   1.370   .     A
C1588  C1606   1.369   .     A
C1589  Al1635  1.899   .     S
C1589  C1644   1.300   .     S
O1590  C1644   1.300   .     S
O1590  Al1636  1.899   .     S
C1591  C1645   1.370   .     A
C1591  C2749   1.369   .     A
C1592  Al1634  1.899   .     S
C1592  C1718   1.300   .     S
O1593  C1646   1.300   .     S
O1593  Al1633  1.899   .     S
C1594  C1647   1.370   .     A
C1594  C1888   1.369   .     A
C1595  Al1636  1.899   .     S
C1595  C1648   1.300   .     S
O1596  C1648   1.300   .     S
O1596  Al1635  1.899   .     S
C1597  C1649   1.370   .     A
C1598  Al1635  1.899   .     S
C1598  C1722   1.300   .     S
O1599  C1650   1.300   .     S
O1599  Al1636  1.899   .     S
C1600  C1651   1.370   .     A
C1601  Al1633  1.899   .     S
C1601  C1652   1.300   .     S
O1602  C1652   1.300   .     S
O1602  Al1634  1.899   .     S
C1603  C1725   1.370   .     A
C1604  Al1636  1.899   .     S
C1604  C1654   1.300   .     S
O1605  C1726   1.300   .     S
O1605  Al1635  1.899   .     S
C1606  C1655   1.370   .     A
C1607  Al1634  1.899   .     S
C1607  C1656   1.300   .     S
O1608  C1656   1.300   .     S
O1608  Al1633  1.899   .     S
C1609  C1653   1.370   .     A
C1610  Al1635  1.899   .     S
C1610  C1726   1.300   .     S
O1611  C1654   1.300   .     S
O1611  Al1636  1.899   .     S
C1612  C1655   1.370   .     A
C1612  C1630   1.369   .     A
C1613  Al1633  1.899   .     S
C1613  C1656   1.300   .     S
O1614  C1656   1.300   .     S
O1614  Al1634  1.899   .     S
C1615  C1721   1.370   .     A
C1616  Al1636  1.899   .     S
C1616  C1650   1.300   .     S
O1617  C1722   1.300   .     S
O1617  Al1635  1.899   .     S
C1618  C1651   1.370   .     A
C1619  Al1634  1.899   .     S
C1619  C1652   1.300   .     S
O1620  C1652   1.300   .     S
O1620  Al1633  1.899   .     S
C1621  C1717   1.370   .     A
C1621  C2767   1.369   .     A
C1622  Al1633  1.899   .     S
C1622  C1646   1.300   .     S
O1623  C1718   1.300   .     S
O1623  Al1634  1.899   .     S
C1624  C1647   1.370   .     A
C1624  C1906   1.369   .     A
C1625  Al1635  1.899   .     S
C1625  C1648   1.300   .     S
O1626  C1648   1.300   .     S
O1626  Al1636  1.899   .     S
C1627  C1641   1.370   .     A
C1627  C2473   1.369   .     A
C1628  Al1634  1.899   .     S
C1628  C1714   1.300   .     S
O1629  C1642   1.300   .     S
O1629  Al1633  1.899   .     S
C1630  C1643   1.370   .     A
C1631  Al1636  1.899   .     S
C1631  C1644   1.300   .     S
O1632  C1644   1.300   .     S
O1632  Al1635  1.899   .     S
Al1633 O1637   1.959   .     S
Al1633 O1640   1.959   .     S
Al1634 O1709   1.959   .     S
Al1634 O1640   1.959   .     S
Al1635 O1711   1.959   .     S
Al1635 O1638   1.959   .     S
Al1636 O1639   1.959   .     S
Al1636 O1638   1.959   .     S
C1641  C1642   1.500   .     S
C1643  C1644   1.500   .     S
C1645  C1646   1.500   .     S
C1647  C1648   1.500   .     S
C1649  C1650   1.500   .     S
C1651  C1652   1.500   .     S
C1653  C1654   1.500   .     S
C1655  C1656   1.500   .     S
C1657  C1497   1.370   1_655 A
C1657  C2539   1.369   .     A
C1658  Al1705  1.899   .     S
C1658  C1714   1.300   .     S
O1659  C1498   1.300   1_655 S
O1659  Al1706  1.899   .     S
C1660  C1715   1.370   .     A
C1660  C1678   1.369   .     A
C1661  Al1707  1.899   .     S
C1661  C1716   1.300   .     S
O1662  C1716   1.300   .     S
O1662  Al1708  1.899   .     S
C1663  C1717   1.370   .     A
C1663  C2821   1.369   .     A
C1664  Al1706  1.899   .     S
C1664  C1502   1.300   1_655 S
O1665  C1718   1.300   .     S
O1665  Al1705  1.899   .     S
C1666  C1719   1.370   .     A
C1666  C1960   1.369   .     A
C1667  Al1708  1.899   .     S
C1667  C1720   1.300   .     S
O1668  C1720   1.300   .     S
O1668  Al1707  1.899   .     S
C1669  C1721   1.370   .     A
C1670  Al1707  1.899   .     S
C1670  C1506   1.300   1_655 S
O1671  C1722   1.300   .     S
O1671  Al1708  1.899   .     S
C1672  C1723   1.370   .     A
C1673  Al1705  1.899   .     S
C1673  C1724   1.300   .     S
O1674  C1724   1.300   .     S
O1674  Al1706  1.899   .     S
C1675  C1509   1.370   1_655 A
C1676  Al1708  1.899   .     S
C1676  C1726   1.300   .     S
O1677  C1510   1.300   1_655 S
O1677  Al1707  1.899   .     S
C1678  C1727   1.370   .     A
C1679  Al1706  1.899   .     S
C1679  C1728   1.300   .     S
O1680  C1728   1.300   .     S
O1680  Al1705  1.899   .     S
C1681  C1725   1.370   .     A
C1682  Al1707  1.899   .     S
C1682  C1510   1.300   1_655 S
O1683  C1726   1.300   .     S
O1683  Al1708  1.899   .     S
C1684  C1727   1.370   .     A
C1684  C1702   1.369   .     A
C1685  Al1705  1.899   .     S
C1685  C1728   1.300   .     S
O1686  C1728   1.300   .     S
O1686  Al1706  1.899   .     S
C1687  C1505   1.370   1_655 A
C1688  Al1708  1.899   .     S
C1688  C1722   1.300   .     S
O1689  C1506   1.300   1_655 S
O1689  Al1707  1.899   .     S
C1690  C1723   1.370   .     A
C1691  Al1706  1.899   .     S
C1691  C1724   1.300   .     S
O1692  C1724   1.300   .     S
O1692  Al1705  1.899   .     S
C1693  C1501   1.370   1_655 A
C1693  C2839   1.369   .     A
C1694  Al1705  1.899   .     S
C1694  C1718   1.300   .     S
O1695  C1502   1.300   1_655 S
O1695  Al1706  1.899   .     S
C1696  C1719   1.370   .     A
C1696  C1978   1.369   .     A
C1697  Al1707  1.899   .     S
C1697  C1720   1.300   .     S
O1698  C1720   1.300   .     S
O1698  Al1708  1.899   .     S
C1699  C1713   1.370   .     A
C1699  C2545   1.369   .     A
C1700  Al1706  1.899   .     S
C1700  C1498   1.300   1_655 S
O1701  C1714   1.300   .     S
O1701  Al1705  1.899   .     S
C1702  C1715   1.370   .     A
C1703  Al1708  1.899   .     S
C1703  C1716   1.300   .     S
O1704  C1716   1.300   .     S
O1704  Al1707  1.899   .     S
Al1705 O1709   1.959   .     S
Al1705 O1712   1.959   .     S
Al1706 O1493   1.959   1_655 S
Al1706 O1712   1.959   .     S
Al1707 O1495   1.959   1_655 S
Al1707 O1710   1.959   .     S
Al1708 O1711   1.959   .     S
Al1708 O1710   1.959   .     S
C1713  C1714   1.500   .     S
C1715  C1716   1.500   .     S
C1717  C1718   1.500   .     S
C1719  C1720   1.500   .     S
C1721  C1722   1.500   .     S
C1723  C1724   1.500   .     S
C1725  C1726   1.500   .     S
C1727  C1728   1.500   .     S
C1729  C1857   1.370   .     A
C1729  C2611   1.369   .     A
C1730  Al1777  1.899   .     S
C1730  C1786   1.300   .     S
O1731  C1858   1.300   .     S
O1731  Al1778  1.899   .     S
C1732  C1787   1.370   .     A
C1732  C1750   1.369   .     A
C1733  Al1779  1.899   .     S
C1733  C1788   1.300   .     S
O1734  C1788   1.300   .     S
O1734  Al1780  1.899   .     S
C1735  C1789   1.370   .     A
C1735  C2893   1.369   .     A
C1736  Al1778  1.899   .     S
C1736  C1862   1.300   .     S
O1737  C1790   1.300   .     S
O1737  Al1777  1.899   .     S
C1738  C1791   1.370   .     A
C1738  C2032   1.369   .     A
C1739  Al1780  1.899   .     S
C1739  C1792   1.300   .     S
O1740  C1792   1.300   .     S
O1740  Al1779  1.899   .     S
C1741  C1793   1.370   .     A
C1742  Al1779  1.899   .     S
C1742  C1866   1.300   .     S
O1743  C1794   1.300   .     S
O1743  Al1780  1.899   .     S
C1744  C1795   1.370   .     A
C1745  Al1777  1.899   .     S
C1745  C1796   1.300   .     S
O1746  C1796   1.300   .     S
O1746  Al1778  1.899   .     S
C1747  C1869   1.370   .     A
C1748  Al1780  1.899   .     S
C1748  C1798   1.300   .     S
O1749  C1870   1.300   .     S
O1749  Al1779  1.899   .     S
C1750  C1799   1.370   .     A
C1751  Al1778  1.899   .     S
C1751  C1800   1.300   .     S
O1752  C1800   1.300   .     S
O1752  Al1777  1.899   .     S
C1753  C1797   1.370   .     A
C1754  Al1779  1.899   .     S
C1754  C1870   1.300   .     S
O1755  C1798   1.300   .     S
O1755  Al1780  1.899   .     S
C1756  C1799   1.370   .     A
C1756  C1774   1.369   .     A
C1757  Al1777  1.899   .     S
C1757  C1800   1.300   .     S
O1758  C1800   1.300   .     S
O1758  Al1778  1.899   .     S
C1759  C1865   1.370   .     A
C1760  Al1780  1.899   .     S
C1760  C1794   1.300   .     S
O1761  C1866   1.300   .     S
O1761  Al1779  1.899   .     S
C1762  C1795   1.370   .     A
C1763  Al1778  1.899   .     S
C1763  C1796   1.300   .     S
O1764  C1796   1.300   .     S
O1764  Al1777  1.899   .     S
C1765  C1861   1.370   .     A
C1765  C2911   1.369   .     A
C1766  Al1777  1.899   .     S
C1766  C1790   1.300   .     S
O1767  C1862   1.300   .     S
O1767  Al1778  1.899   .     S
C1768  C1791   1.370   .     A
C1768  C2050   1.369   .     A
C1769  Al1779  1.899   .     S
C1769  C1792   1.300   .     S
O1770  C1792   1.300   .     S
O1770  Al1780  1.899   .     S
C1771  C1785   1.370   .     A
C1771  C2617   1.369   .     A
C1772  Al1778  1.899   .     S
C1772  C1858   1.300   .     S
O1773  C1786   1.300   .     S
O1773  Al1777  1.899   .     S
C1774  C1787   1.370   .     A
C1775  Al1780  1.899   .     S
C1775  C1788   1.300   .     S
O1776  C1788   1.300   .     S
O1776  Al1779  1.899   .     S
Al1777 O1781   1.959   .     S
Al1777 O1784   1.959   .     S
Al1778 O1853   1.959   .     S
Al1778 O1784   1.959   .     S
Al1779 O1855   1.959   .     S
Al1779 O1782   1.959   .     S
Al1780 O1783   1.959   .     S
Al1780 O1782   1.959   .     S
O1781  Al1994  1.959   1_455 S
O1783  Al1995  1.959   1_455 S
C1785  C1945   1.370   1_455 A
C1785  C1786   1.500   .     S
C1786  C1988   1.300   1_455 S
C1786  O1947   1.300   1_455 S
C1787  C1788   1.500   .     S
C1789  C1981   1.370   1_455 A
C1789  C1790   1.500   .     S
C1790  C1952   1.300   1_455 S
C1790  O1983   1.300   1_455 S
C1791  C1792   1.500   .     S
C1793  C1975   1.370   1_455 A
C1793  C1794   1.500   .     S
C1794  C1958   1.300   1_455 S
C1794  O1977   1.300   1_455 S
C1795  C1796   1.500   .     S
C1797  C1963   1.370   1_455 A
C1797  C1798   1.500   .     S
C1798  C1970   1.300   1_455 S
C1798  O1965   1.300   1_455 S
C1799  C1800   1.500   .     S
C1801  C1929   1.370   .     A
C1801  C2683   1.369   .     A
C1802  Al1849  1.899   .     S
C1802  C1858   1.300   .     S
O1803  C1930   1.300   .     S
O1803  Al1850  1.899   .     S
C1804  C1859   1.370   .     A
C1804  C1822   1.369   .     A
C1805  Al1851  1.899   .     S
C1805  C1860   1.300   .     S
O1806  C1860   1.300   .     S
O1806  Al1852  1.899   .     S
C1807  C1861   1.370   .     A
C1807  C2965   1.369   .     A
C1808  Al1850  1.899   .     S
C1808  C1934   1.300   .     S
O1809  C1862   1.300   .     S
O1809  Al1849  1.899   .     S
C1810  C1863   1.370   .     A
C1810  C2104   1.369   .     A
C1811  Al1852  1.899   .     S
C1811  C1864   1.300   .     S
O1812  C1864   1.300   .     S
O1812  Al1851  1.899   .     S
C1813  C1865   1.370   .     A
C1814  Al1851  1.899   .     S
C1814  C1938   1.300   .     S
O1815  C1866   1.300   .     S
O1815  Al1852  1.899   .     S
C1816  C1867   1.370   .     A
C1817  Al1849  1.899   .     S
C1817  C1868   1.300   .     S
O1818  C1868   1.300   .     S
O1818  Al1850  1.899   .     S
C1819  C1941   1.370   .     A
C1820  Al1852  1.899   .     S
C1820  C1870   1.300   .     S
O1821  C1942   1.300   .     S
O1821  Al1851  1.899   .     S
C1822  C1871   1.370   .     A
C1823  Al1850  1.899   .     S
C1823  C1872   1.300   .     S
O1824  C1872   1.300   .     S
O1824  Al1849  1.899   .     S
C1825  C1869   1.370   .     A
C1826  Al1851  1.899   .     S
C1826  C1942   1.300   .     S
O1827  C1870   1.300   .     S
O1827  Al1852  1.899   .     S
C1828  C1871   1.370   .     A
C1828  C1846   1.369   .     A
C1829  Al1849  1.899   .     S
C1829  C1872   1.300   .     S
O1830  C1872   1.300   .     S
O1830  Al1850  1.899   .     S
C1831  C1937   1.370   .     A
C1832  Al1852  1.899   .     S
C1832  C1866   1.300   .     S
O1833  C1938   1.300   .     S
O1833  Al1851  1.899   .     S
C1834  C1867   1.370   .     A
C1835  Al1850  1.899   .     S
C1835  C1868   1.300   .     S
O1836  C1868   1.300   .     S
O1836  Al1849  1.899   .     S
C1837  C1933   1.370   .     A
C1837  C2983   1.369   .     A
C1838  Al1849  1.899   .     S
C1838  C1862   1.300   .     S
O1839  C1934   1.300   .     S
O1839  Al1850  1.899   .     S
C1840  C1863   1.370   .     A
C1840  C2122   1.369   .     A
C1841  Al1851  1.899   .     S
C1841  C1864   1.300   .     S
O1842  C1864   1.300   .     S
O1842  Al1852  1.899   .     S
C1843  C1857   1.370   .     A
C1843  C2689   1.369   .     A
C1844  Al1850  1.899   .     S
C1844  C1930   1.300   .     S
O1845  C1858   1.300   .     S
O1845  Al1849  1.899   .     S
C1846  C1859   1.370   .     A
C1847  Al1852  1.899   .     S
C1847  C1860   1.300   .     S
O1848  C1860   1.300   .     S
O1848  Al1851  1.899   .     S
Al1849 O1853   1.959   .     S
Al1849 O1856   1.959   .     S
Al1850 O1925   1.959   .     S
Al1850 O1856   1.959   .     S
Al1851 O1927   1.959   .     S
Al1851 O1854   1.959   .     S
Al1852 O1855   1.959   .     S
Al1852 O1854   1.959   .     S
C1857  C1858   1.500   .     S
C1859  C1860   1.500   .     S
C1861  C1862   1.500   .     S
C1863  C1864   1.500   .     S
C1865  C1866   1.500   .     S
C1867  C1868   1.500   .     S
C1869  C1870   1.500   .     S
C1871  C1872   1.500   .     S
C1873  C2001   1.370   .     A
C1873  C2755   1.369   .     A
C1874  Al1921  1.899   .     S
C1874  C1930   1.300   .     S
O1875  C2002   1.300   .     S
O1875  Al1922  1.899   .     S
C1876  C1931   1.370   .     A
C1876  C1894   1.369   .     A
C1877  Al1923  1.899   .     S
C1877  C1932   1.300   .     S
O1878  C1932   1.300   .     S
O1878  Al1924  1.899   .     S
C1879  C1933   1.370   .     A
C1879  C3037   1.369   .     A
C1880  Al1922  1.899   .     S
C1880  C2006   1.300   .     S
O1881  C1934   1.300   .     S
O1881  Al1921  1.899   .     S
C1882  C1935   1.370   .     A
C1882  C2176   1.369   .     A
C1883  Al1924  1.899   .     S
C1883  C1936   1.300   .     S
O1884  C1936   1.300   .     S
O1884  Al1923  1.899   .     S
C1885  C1937   1.370   .     A
C1886  Al1923  1.899   .     S
C1886  C2010   1.300   .     S
O1887  C1938   1.300   .     S
O1887  Al1924  1.899   .     S
C1888  C1939   1.370   .     A
C1889  Al1921  1.899   .     S
C1889  C1940   1.300   .     S
O1890  C1940   1.300   .     S
O1890  Al1922  1.899   .     S
C1891  C2013   1.370   .     A
C1892  Al1924  1.899   .     S
C1892  C1942   1.300   .     S
O1893  C2014   1.300   .     S
O1893  Al1923  1.899   .     S
C1894  C1943   1.370   .     A
C1895  Al1922  1.899   .     S
C1895  C1944   1.300   .     S
O1896  C1944   1.300   .     S
O1896  Al1921  1.899   .     S
C1897  C1941   1.370   .     A
C1898  Al1923  1.899   .     S
C1898  C2014   1.300   .     S
O1899  C1942   1.300   .     S
O1899  Al1924  1.899   .     S
C1900  C1943   1.370   .     A
C1900  C1918   1.369   .     A
C1901  Al1921  1.899   .     S
C1901  C1944   1.300   .     S
O1902  C1944   1.300   .     S
O1902  Al1922  1.899   .     S
C1903  C2009   1.370   .     A
C1904  Al1924  1.899   .     S
C1904  C1938   1.300   .     S
O1905  C2010   1.300   .     S
O1905  Al1923  1.899   .     S
C1906  C1939   1.370   .     A
C1907  Al1922  1.899   .     S
C1907  C1940   1.300   .     S
O1908  C1940   1.300   .     S
O1908  Al1921  1.899   .     S
C1909  C2005   1.370   .     A
C1909  C3055   1.369   .     A
C1910  Al1921  1.899   .     S
C1910  C1934   1.300   .     S
O1911  C2006   1.300   .     S
O1911  Al1922  1.899   .     S
C1912  C1935   1.370   .     A
C1912  C2194   1.369   .     A
C1913  Al1923  1.899   .     S
C1913  C1936   1.300   .     S
O1914  C1936   1.300   .     S
O1914  Al1924  1.899   .     S
C1915  C1929   1.370   .     A
C1915  C2761   1.369   .     A
C1916  Al1922  1.899   .     S
C1916  C2002   1.300   .     S
O1917  C1930   1.300   .     S
O1917  Al1921  1.899   .     S
C1918  C1931   1.370   .     A
C1919  Al1924  1.899   .     S
C1919  C1932   1.300   .     S
O1920  C1932   1.300   .     S
O1920  Al1923  1.899   .     S
Al1921 O1925   1.959   .     S
Al1921 O1928   1.959   .     S
Al1922 O1997   1.959   .     S
Al1922 O1928   1.959   .     S
Al1923 O1999   1.959   .     S
Al1923 O1926   1.959   .     S
Al1924 O1927   1.959   .     S
Al1924 O1926   1.959   .     S
C1929  C1930   1.500   .     S
C1931  C1932   1.500   .     S
C1933  C1934   1.500   .     S
C1935  C1936   1.500   .     S
C1937  C1938   1.500   .     S
C1939  C1940   1.500   .     S
C1941  C1942   1.500   .     S
C1943  C1944   1.500   .     S
C1945  C1785   1.370   1_655 A
C1945  C2827   1.369   .     A
C1946  Al1993  1.899   .     S
C1946  C2002   1.300   .     S
O1947  C1786   1.300   1_655 S
O1947  Al1994  1.899   .     S
C1948  C2003   1.370   .     A
C1948  C1966   1.369   .     A
C1949  Al1995  1.899   .     S
C1949  C2004   1.300   .     S
O1950  C2004   1.300   .     S
O1950  Al1996  1.899   .     S
C1951  C2005   1.370   .     A
C1951  C3109   1.369   .     A
C1952  Al1994  1.899   .     S
C1952  C1790   1.300   1_655 S
O1953  C2006   1.300   .     S
O1953  Al1993  1.899   .     S
C1954  C2007   1.370   .     A
C1954  C2248   1.369   .     A
C1955  Al1996  1.899   .     S
C1955  C2008   1.300   .     S
O1956  C2008   1.300   .     S
O1956  Al1995  1.899   .     S
C1957  C2009   1.370   .     A
C1958  Al1995  1.899   .     S
C1958  C1794   1.300   1_655 S
O1959  C2010   1.300   .     S
O1959  Al1996  1.899   .     S
C1960  C2011   1.370   .     A
C1961  Al1993  1.899   .     S
C1961  C2012   1.300   .     S
O1962  C2012   1.300   .     S
O1962  Al1994  1.899   .     S
C1963  C1797   1.370   1_655 A
C1964  Al1996  1.899   .     S
C1964  C2014   1.300   .     S
O1965  C1798   1.300   1_655 S
O1965  Al1995  1.899   .     S
C1966  C2015   1.370   .     A
C1967  Al1994  1.899   .     S
C1967  C2016   1.300   .     S
O1968  C2016   1.300   .     S
O1968  Al1993  1.899   .     S
C1969  C2013   1.370   .     A
C1970  Al1995  1.899   .     S
C1970  C1798   1.300   1_655 S
O1971  C2014   1.300   .     S
O1971  Al1996  1.899   .     S
C1972  C2015   1.370   .     A
C1972  C1990   1.369   .     A
C1973  Al1993  1.899   .     S
C1973  C2016   1.300   .     S
O1974  C2016   1.300   .     S
O1974  Al1994  1.899   .     S
C1975  C1793   1.370   1_655 A
C1976  Al1996  1.899   .     S
C1976  C2010   1.300   .     S
O1977  C1794   1.300   1_655 S
O1977  Al1995  1.899   .     S
C1978  C2011   1.370   .     A
C1979  Al1994  1.899   .     S
C1979  C2012   1.300   .     S
O1980  C2012   1.300   .     S
O1980  Al1993  1.899   .     S
C1981  C1789   1.370   1_655 A
C1981  C3127   1.369   .     A
C1982  Al1993  1.899   .     S
C1982  C2006   1.300   .     S
O1983  C1790   1.300   1_655 S
O1983  Al1994  1.899   .     S
C1984  C2007   1.370   .     A
C1984  C2266   1.369   .     A
C1985  Al1995  1.899   .     S
C1985  C2008   1.300   .     S
O1986  C2008   1.300   .     S
O1986  Al1996  1.899   .     S
C1987  C2001   1.370   .     A
C1987  C2833   1.369   .     A
C1988  Al1994  1.899   .     S
C1988  C1786   1.300   1_655 S
O1989  C2002   1.300   .     S
O1989  Al1993  1.899   .     S
C1990  C2003   1.370   .     A
C1991  Al1996  1.899   .     S
C1991  C2004   1.300   .     S
O1992  C2004   1.300   .     S
O1992  Al1995  1.899   .     S
Al1993 O1997   1.959   .     S
Al1993 O2000   1.959   .     S
Al1994 O1781   1.959   1_655 S
Al1994 O2000   1.959   .     S
Al1995 O1783   1.959   1_655 S
Al1995 O1998   1.959   .     S
Al1996 O1999   1.959   .     S
Al1996 O1998   1.959   .     S
C2001  C2002   1.500   .     S
C2003  C2004   1.500   .     S
C2005  C2006   1.500   .     S
C2007  C2008   1.500   .     S
C2009  C2010   1.500   .     S
C2011  C2012   1.500   .     S
C2013  C2014   1.500   .     S
C2015  C2016   1.500   .     S
C2017  C2145   1.370   .     A
C2017  C2899   1.369   .     A
C2018  Al2065  1.899   .     S
C2018  C2074   1.300   .     S
O2019  C2146   1.300   .     S
O2019  Al2066  1.899   .     S
C2020  C2075   1.370   .     A
C2020  C2038   1.369   .     A
C2021  Al2067  1.899   .     S
C2021  C2076   1.300   .     S
O2022  C2076   1.300   .     S
O2022  Al2068  1.899   .     S
C2023  C2077   1.370   .     A
C2023  C3181   1.369   .     A
C2024  Al2066  1.899   .     S
C2024  C2150   1.300   .     S
O2025  C2078   1.300   .     S
O2025  Al2065  1.899   .     S
C2026  C2079   1.370   .     A
C2026  C1168   1.369   1_565 A
C2027  Al2068  1.899   .     S
C2027  C2080   1.300   .     S
O2028  C2080   1.300   .     S
O2028  Al2067  1.899   .     S
C2029  C2081   1.370   .     A
C2030  Al2067  1.899   .     S
C2030  C2154   1.300   .     S
O2031  C2082   1.300   .     S
O2031  Al2068  1.899   .     S
C2032  C2083   1.370   .     A
C2033  Al2065  1.899   .     S
C2033  C2084   1.300   .     S
O2034  C2084   1.300   .     S
O2034  Al2066  1.899   .     S
C2035  C2157   1.370   .     A
C2035  C1      1.369   1_565 A
C2036  Al2068  1.899   .     S
C2036  C2086   1.300   .     S
O2037  C2158   1.300   .     S
O2037  Al2067  1.899   .     S
C2038  C2087   1.370   .     A
C2039  Al2066  1.899   .     S
C2039  C2088   1.300   .     S
O2040  C2088   1.300   .     S
O2040  Al2065  1.899   .     S
C2041  C2085   1.370   .     A
C2041  C43     1.369   1_565 A
C2042  Al2067  1.899   .     S
C2042  C2158   1.300   .     S
O2043  C2086   1.300   .     S
O2043  Al2068  1.899   .     S
C2044  C2087   1.370   .     A
C2044  C2062   1.369   .     A
C2045  Al2065  1.899   .     S
C2045  C2088   1.300   .     S
O2046  C2088   1.300   .     S
O2046  Al2066  1.899   .     S
C2047  C2153   1.370   .     A
C2048  Al2068  1.899   .     S
C2048  C2082   1.300   .     S
O2049  C2154   1.300   .     S
O2049  Al2067  1.899   .     S
C2050  C2083   1.370   .     A
C2051  Al2066  1.899   .     S
C2051  C2084   1.300   .     S
O2052  C2084   1.300   .     S
O2052  Al2065  1.899   .     S
C2053  C2149   1.370   .     A
C2053  C3199   1.369   .     A
C2054  Al2065  1.899   .     S
C2054  C2078   1.300   .     S
O2055  C2150   1.300   .     S
O2055  Al2066  1.899   .     S
C2056  C2079   1.370   .     A
C2056  C1186   1.369   1_565 A
C2057  Al2067  1.899   .     S
C2057  C2080   1.300   .     S
O2058  C2080   1.300   .     S
O2058  Al2068  1.899   .     S
C2059  C2073   1.370   .     A
C2059  C2905   1.369   .     A
C2060  Al2066  1.899   .     S
C2060  C2146   1.300   .     S
O2061  C2074   1.300   .     S
O2061  Al2065  1.899   .     S
C2062  C2075   1.370   .     A
C2063  Al2068  1.899   .     S
C2063  C2076   1.300   .     S
O2064  C2076   1.300   .     S
O2064  Al2067  1.899   .     S
Al2065 O2069   1.959   .     S
Al2065 O2072   1.959   .     S
Al2066 O2141   1.959   .     S
Al2066 O2072   1.959   .     S
Al2067 O2143   1.959   .     S
Al2067 O2070   1.959   .     S
Al2068 O2071   1.959   .     S
Al2068 O2070   1.959   .     S
O2069  Al2282  1.959   1_455 S
O2071  Al2283  1.959   1_455 S
C2073  C2233   1.370   1_455 A
C2073  C2074   1.500   .     S
C2074  C2276   1.300   1_455 S
C2074  O2235   1.300   1_455 S
C2075  C2076   1.500   .     S
C2077  C2269   1.370   1_455 A
C2077  C2078   1.500   .     S
C2078  C2240   1.300   1_455 S
C2078  O2271   1.300   1_455 S
C2079  C2080   1.500   .     S
C2081  C2263   1.370   1_455 A
C2081  C2082   1.500   .     S
C2082  C2246   1.300   1_455 S
C2082  O2265   1.300   1_455 S
C2083  C2084   1.500   .     S
C2085  C2251   1.370   1_455 A
C2085  C2086   1.500   .     S
C2086  C2258   1.300   1_455 S
C2086  O2253   1.300   1_455 S
C2087  C2088   1.500   .     S
C2089  C2217   1.370   .     A
C2089  C2971   1.369   .     A
C2090  Al2137  1.899   .     S
C2090  C2146   1.300   .     S
O2091  C2218   1.300   .     S
O2091  Al2138  1.899   .     S
C2092  C2147   1.370   .     A
C2092  C2110   1.369   .     A
C2093  Al2139  1.899   .     S
C2093  C2148   1.300   .     S
O2094  C2148   1.300   .     S
O2094  Al2140  1.899   .     S
C2095  C2149   1.370   .     A
C2095  C3253   1.369   .     A
C2096  Al2138  1.899   .     S
C2096  C2222   1.300   .     S
O2097  C2150   1.300   .     S
O2097  Al2137  1.899   .     S
C2098  C2151   1.370   .     A
C2098  C1240   1.369   1_565 A
C2099  Al2140  1.899   .     S
C2099  C2152   1.300   .     S
O2100  C2152   1.300   .     S
O2100  Al2139  1.899   .     S
C2101  C2153   1.370   .     A
C2102  Al2139  1.899   .     S
C2102  C2226   1.300   .     S
O2103  C2154   1.300   .     S
O2103  Al2140  1.899   .     S
C2104  C2155   1.370   .     A
C2105  Al2137  1.899   .     S
C2105  C2156   1.300   .     S
O2106  C2156   1.300   .     S
O2106  Al2138  1.899   .     S
C2107  C2229   1.370   .     A
C2107  C73     1.369   1_565 A
C2108  Al2140  1.899   .     S
C2108  C2158   1.300   .     S
O2109  C2230   1.300   .     S
O2109  Al2139  1.899   .     S
C2110  C2159   1.370   .     A
C2111  Al2138  1.899   .     S
C2111  C2160   1.300   .     S
O2112  C2160   1.300   .     S
O2112  Al2137  1.899   .     S
C2113  C2157   1.370   .     A
C2113  C115    1.369   1_565 A
C2114  Al2139  1.899   .     S
C2114  C2230   1.300   .     S
O2115  C2158   1.300   .     S
O2115  Al2140  1.899   .     S
C2116  C2159   1.370   .     A
C2116  C2134   1.369   .     A
C2117  Al2137  1.899   .     S
C2117  C2160   1.300   .     S
O2118  C2160   1.300   .     S
O2118  Al2138  1.899   .     S
C2119  C2225   1.370   .     A
C2120  Al2140  1.899   .     S
C2120  C2154   1.300   .     S
O2121  C2226   1.300   .     S
O2121  Al2139  1.899   .     S
C2122  C2155   1.370   .     A
C2123  Al2138  1.899   .     S
C2123  C2156   1.300   .     S
O2124  C2156   1.300   .     S
O2124  Al2137  1.899   .     S
C2125  C2221   1.370   .     A
C2125  C3271   1.369   .     A
C2126  Al2137  1.899   .     S
C2126  C2150   1.300   .     S
O2127  C2222   1.300   .     S
O2127  Al2138  1.899   .     S
C2128  C2151   1.370   .     A
C2128  C1258   1.369   1_565 A
C2129  Al2139  1.899   .     S
C2129  C2152   1.300   .     S
O2130  C2152   1.300   .     S
O2130  Al2140  1.899   .     S
C2131  C2145   1.370   .     A
C2131  C2977   1.369   .     A
C2132  Al2138  1.899   .     S
C2132  C2218   1.300   .     S
O2133  C2146   1.300   .     S
O2133  Al2137  1.899   .     S
C2134  C2147   1.370   .     A
C2135  Al2140  1.899   .     S
C2135  C2148   1.300   .     S
O2136  C2148   1.300   .     S
O2136  Al2139  1.899   .     S
Al2137 O2141   1.959   .     S
Al2137 O2144   1.959   .     S
Al2138 O2213   1.959   .     S
Al2138 O2144   1.959   .     S
Al2139 O2215   1.959   .     S
Al2139 O2142   1.959   .     S
Al2140 O2143   1.959   .     S
Al2140 O2142   1.959   .     S
C2145  C2146   1.500   .     S
C2147  C2148   1.500   .     S
C2149  C2150   1.500   .     S
C2151  C2152   1.500   .     S
C2153  C2154   1.500   .     S
C2155  C2156   1.500   .     S
C2157  C2158   1.500   .     S
C2159  C2160   1.500   .     S
C2161  C2289   1.370   .     A
C2161  C3043   1.369   .     A
C2162  Al2209  1.899   .     S
C2162  C2218   1.300   .     S
O2163  C2290   1.300   .     S
O2163  Al2210  1.899   .     S
C2164  C2219   1.370   .     A
C2164  C2182   1.369   .     A
C2165  Al2211  1.899   .     S
C2165  C2220   1.300   .     S
O2166  C2220   1.300   .     S
O2166  Al2212  1.899   .     S
C2167  C2221   1.370   .     A
C2167  C3325   1.369   .     A
C2168  Al2210  1.899   .     S
C2168  C2294   1.300   .     S
O2169  C2222   1.300   .     S
O2169  Al2209  1.899   .     S
C2170  C2223   1.370   .     A
C2170  C1312   1.369   1_565 A
C2171  Al2212  1.899   .     S
C2171  C2224   1.300   .     S
O2172  C2224   1.300   .     S
O2172  Al2211  1.899   .     S
C2173  C2225   1.370   .     A
C2174  Al2211  1.899   .     S
C2174  C2298   1.300   .     S
O2175  C2226   1.300   .     S
O2175  Al2212  1.899   .     S
C2176  C2227   1.370   .     A
C2177  Al2209  1.899   .     S
C2177  C2228   1.300   .     S
O2178  C2228   1.300   .     S
O2178  Al2210  1.899   .     S
C2179  C2301   1.370   .     A
C2179  C145    1.369   1_565 A
C2180  Al2212  1.899   .     S
C2180  C2230   1.300   .     S
O2181  C2302   1.300   .     S
O2181  Al2211  1.899   .     S
C2182  C2231   1.370   .     A
C2183  Al2210  1.899   .     S
C2183  C2232   1.300   .     S
O2184  C2232   1.300   .     S
O2184  Al2209  1.899   .     S
C2185  C2229   1.370   .     A
C2185  C187    1.369   1_565 A
C2186  Al2211  1.899   .     S
C2186  C2302   1.300   .     S
O2187  C2230   1.300   .     S
O2187  Al2212  1.899   .     S
C2188  C2231   1.370   .     A
C2188  C2206   1.369   .     A
C2189  Al2209  1.899   .     S
C2189  C2232   1.300   .     S
O2190  C2232   1.300   .     S
O2190  Al2210  1.899   .     S
C2191  C2297   1.370   .     A
C2192  Al2212  1.899   .     S
C2192  C2226   1.300   .     S
O2193  C2298   1.300   .     S
O2193  Al2211  1.899   .     S
C2194  C2227   1.370   .     A
C2195  Al2210  1.899   .     S
C2195  C2228   1.300   .     S
O2196  C2228   1.300   .     S
O2196  Al2209  1.899   .     S
C2197  C2293   1.370   .     A
C2197  C3343   1.369   .     A
C2198  Al2209  1.899   .     S
C2198  C2222   1.300   .     S
O2199  C2294   1.300   .     S
O2199  Al2210  1.899   .     S
C2200  C2223   1.370   .     A
C2200  C1330   1.369   1_565 A
C2201  Al2211  1.899   .     S
C2201  C2224   1.300   .     S
O2202  C2224   1.300   .     S
O2202  Al2212  1.899   .     S
C2203  C2217   1.370   .     A
C2203  C3049   1.369   .     A
C2204  Al2210  1.899   .     S
C2204  C2290   1.300   .     S
O2205  C2218   1.300   .     S
O2205  Al2209  1.899   .     S
C2206  C2219   1.370   .     A
C2207  Al2212  1.899   .     S
C2207  C2220   1.300   .     S
O2208  C2220   1.300   .     S
O2208  Al2211  1.899   .     S
Al2209 O2213   1.959   .     S
Al2209 O2216   1.959   .     S
Al2210 O2285   1.959   .     S
Al2210 O2216   1.959   .     S
Al2211 O2287   1.959   .     S
Al2211 O2214   1.959   .     S
Al2212 O2215   1.959   .     S
Al2212 O2214   1.959   .     S
C2217  C2218   1.500   .     S
C2219  C2220   1.500   .     S
C2221  C2222   1.500   .     S
C2223  C2224   1.500   .     S
C2225  C2226   1.500   .     S
C2227  C2228   1.500   .     S
C2229  C2230   1.500   .     S
C2231  C2232   1.500   .     S
C2233  C2073   1.370   1_655 A
C2233  C3115   1.369   .     A
C2234  Al2281  1.899   .     S
C2234  C2290   1.300   .     S
O2235  C2074   1.300   1_655 S
O2235  Al2282  1.899   .     S
C2236  C2291   1.370   .     A
C2236  C2254   1.369   .     A
C2237  Al2283  1.899   .     S
C2237  C2292   1.300   .     S
O2238  C2292   1.300   .     S
O2238  Al2284  1.899   .     S
C2239  C2293   1.370   .     A
C2239  C3397   1.369   .     A
C2240  Al2282  1.899   .     S
C2240  C2078   1.300   1_655 S
O2241  C2294   1.300   .     S
O2241  Al2281  1.899   .     S
C2242  C2295   1.370   .     A
C2242  C1384   1.369   1_565 A
C2243  Al2284  1.899   .     S
C2243  C2296   1.300   .     S
O2244  C2296   1.300   .     S
O2244  Al2283  1.899   .     S
C2245  C2297   1.370   .     A
C2246  Al2283  1.899   .     S
C2246  C2082   1.300   1_655 S
O2247  C2298   1.300   .     S
O2247  Al2284  1.899   .     S
C2248  C2299   1.370   .     A
C2249  Al2281  1.899   .     S
C2249  C2300   1.300   .     S
O2250  C2300   1.300   .     S
O2250  Al2282  1.899   .     S
C2251  C2085   1.370   1_655 A
C2251  C217    1.369   1_565 A
C2252  Al2284  1.899   .     S
C2252  C2302   1.300   .     S
O2253  C2086   1.300   1_655 S
O2253  Al2283  1.899   .     S
C2254  C2303   1.370   .     A
C2255  Al2282  1.899   .     S
C2255  C2304   1.300   .     S
O2256  C2304   1.300   .     S
O2256  Al2281  1.899   .     S
C2257  C2301   1.370   .     A
C2257  C259    1.369   1_565 A
C2258  Al2283  1.899   .     S
C2258  C2086   1.300   1_655 S
O2259  C2302   1.300   .     S
O2259  Al2284  1.899   .     S
C2260  C2303   1.370   .     A
C2260  C2278   1.369   .     A
C2261  Al2281  1.899   .     S
C2261  C2304   1.300   .     S
O2262  C2304   1.300   .     S
O2262  Al2282  1.899   .     S
C2263  C2081   1.370   1_655 A
C2264  Al2284  1.899   .     S
C2264  C2298   1.300   .     S
O2265  C2082   1.300   1_655 S
O2265  Al2283  1.899   .     S
C2266  C2299   1.370   .     A
C2267  Al2282  1.899   .     S
C2267  C2300   1.300   .     S
O2268  C2300   1.300   .     S
O2268  Al2281  1.899   .     S
C2269  C2077   1.370   1_655 A
C2269  C3415   1.369   .     A
C2270  Al2281  1.899   .     S
C2270  C2294   1.300   .     S
O2271  C2078   1.300   1_655 S
O2271  Al2282  1.899   .     S
C2272  C2295   1.370   .     A
C2272  C1402   1.369   1_565 A
C2273  Al2283  1.899   .     S
C2273  C2296   1.300   .     S
O2274  C2296   1.300   .     S
O2274  Al2284  1.899   .     S
C2275  C2289   1.370   .     A
C2275  C3121   1.369   .     A
C2276  Al2282  1.899   .     S
C2276  C2074   1.300   1_655 S
O2277  C2290   1.300   .     S
O2277  Al2281  1.899   .     S
C2278  C2291   1.370   .     A
C2279  Al2284  1.899   .     S
C2279  C2292   1.300   .     S
O2280  C2292   1.300   .     S
O2280  Al2283  1.899   .     S
Al2281 O2285   1.959   .     S
Al2281 O2288   1.959   .     S
Al2282 O2069   1.959   1_655 S
Al2282 O2288   1.959   .     S
Al2283 O2071   1.959   1_655 S
Al2283 O2286   1.959   .     S
Al2284 O2287   1.959   .     S
Al2284 O2286   1.959   .     S
C2289  C2290   1.500   .     S
C2291  C2292   1.500   .     S
C2293  C2294   1.500   .     S
C2295  C2296   1.500   .     S
C2297  C2298   1.500   .     S
C2299  C2300   1.500   .     S
C2301  C2302   1.500   .     S
C2303  C2304   1.500   .     S
C2305  C2433   1.370   .     A
C2305  C4339   1.369   1_545 A
C2306  Al2353  1.899   .     S
C2306  C2362   1.300   .     S
O2307  C2434   1.300   .     S
O2307  Al2354  1.899   .     S
C2308  C2363   1.370   .     A
C2308  C2326   1.369   .     A
C2309  Al2355  1.899   .     S
C2309  C2364   1.300   .     S
O2310  C2364   1.300   .     S
O2310  Al2356  1.899   .     S
C2311  C2365   1.370   .     A
C2311  C3469   1.369   .     A
C2312  Al2354  1.899   .     S
C2312  C2438   1.300   .     S
O2313  C2366   1.300   .     S
O2313  Al2353  1.899   .     S
C2314  C2367   1.370   .     A
C2314  C2608   1.369   .     A
C2315  Al2356  1.899   .     S
C2315  C2368   1.300   .     S
O2316  C2368   1.300   .     S
O2316  Al2355  1.899   .     S
C2317  C2369   1.370   .     A
C2318  Al2355  1.899   .     S
C2318  C2442   1.300   .     S
O2319  C2370   1.300   .     S
O2319  Al2356  1.899   .     S
C2320  C2371   1.370   .     A
C2320  C3178   1.369   1_545 A
C2321  Al2353  1.899   .     S
C2321  C2372   1.300   .     S
O2322  C2372   1.300   .     S
O2322  Al2354  1.899   .     S
C2323  C2445   1.370   .     A
C2324  Al2356  1.899   .     S
C2324  C2374   1.300   .     S
O2325  C2446   1.300   .     S
O2325  Al2355  1.899   .     S
C2326  C2375   1.370   .     A
C2327  Al2354  1.899   .     S
C2327  C2376   1.300   .     S
O2328  C2376   1.300   .     S
O2328  Al2353  1.899   .     S
C2329  C2373   1.370   .     A
C2330  Al2355  1.899   .     S
C2330  C2446   1.300   .     S
O2331  C2374   1.300   .     S
O2331  Al2356  1.899   .     S
C2332  C2375   1.370   .     A
C2332  C2350   1.369   .     A
C2333  Al2353  1.899   .     S
C2333  C2376   1.300   .     S
O2334  C2376   1.300   .     S
O2334  Al2354  1.899   .     S
C2335  C2441   1.370   .     A
C2336  Al2356  1.899   .     S
C2336  C2370   1.300   .     S
O2337  C2442   1.300   .     S
O2337  Al2355  1.899   .     S
C2338  C2371   1.370   .     A
C2338  C3208   1.369   1_545 A
C2339  Al2354  1.899   .     S
C2339  C2372   1.300   .     S
O2340  C2372   1.300   .     S
O2340  Al2353  1.899   .     S
C2341  C2437   1.370   .     A
C2341  C3487   1.369   .     A
C2342  Al2353  1.899   .     S
C2342  C2366   1.300   .     S
O2343  C2438   1.300   .     S
O2343  Al2354  1.899   .     S
C2344  C2367   1.370   .     A
C2344  C2626   1.369   .     A
C2345  Al2355  1.899   .     S
C2345  C2368   1.300   .     S
O2346  C2368   1.300   .     S
O2346  Al2356  1.899   .     S
C2347  C2361   1.370   .     A
C2347  C4345   1.369   1_545 A
C2348  Al2354  1.899   .     S
C2348  C2434   1.300   .     S
O2349  C2362   1.300   .     S
O2349  Al2353  1.899   .     S
C2350  C2363   1.370   .     A
C2351  Al2356  1.899   .     S
C2351  C2364   1.300   .     S
O2352  C2364   1.300   .     S
O2352  Al2355  1.899   .     S
Al2353 O2357   1.959   .     S
Al2353 O2360   1.959   .     S
Al2354 O2429   1.959   .     S
Al2354 O2360   1.959   .     S
Al2355 O2431   1.959   .     S
Al2355 O2358   1.959   .     S
Al2356 O2359   1.959   .     S
Al2356 O2358   1.959   .     S
O2357  Al2570  1.959   1_455 S
O2359  Al2571  1.959   1_455 S
C2361  C2521   1.370   1_455 A
C2361  C2362   1.500   .     S
C2362  C2564   1.300   1_455 S
C2362  O2523   1.300   1_455 S
C2363  C2364   1.500   .     S
C2365  C2557   1.370   1_455 A
C2365  C2366   1.500   .     S
C2366  C2528   1.300   1_455 S
C2366  O2559   1.300   1_455 S
C2367  C2368   1.500   .     S
C2369  C2551   1.370   1_455 A
C2369  C2370   1.500   .     S
C2370  C2534   1.300   1_455 S
C2370  O2553   1.300   1_455 S
C2371  C2372   1.500   .     S
C2373  C2539   1.370   1_455 A
C2373  C2374   1.500   .     S
C2374  C2546   1.300   1_455 S
C2374  O2541   1.300   1_455 S
C2375  C2376   1.500   .     S
C2377  C2505   1.370   .     A
C2377  C4411   1.369   1_545 A
C2378  Al2425  1.899   .     S
C2378  C2434   1.300   .     S
O2379  C2506   1.300   .     S
O2379  Al2426  1.899   .     S
C2380  C2435   1.370   .     A
C2380  C2398   1.369   .     A
C2381  Al2427  1.899   .     S
C2381  C2436   1.300   .     S
O2382  C2436   1.300   .     S
O2382  Al2428  1.899   .     S
C2383  C2437   1.370   .     A
C2383  C3541   1.369   .     A
C2384  Al2426  1.899   .     S
C2384  C2510   1.300   .     S
O2385  C2438   1.300   .     S
O2385  Al2425  1.899   .     S
C2386  C2439   1.370   .     A
C2386  C2680   1.369   .     A
C2387  Al2428  1.899   .     S
C2387  C2440   1.300   .     S
O2388  C2440   1.300   .     S
O2388  Al2427  1.899   .     S
C2389  C2441   1.370   .     A
C2390  Al2427  1.899   .     S
C2390  C2514   1.300   .     S
O2391  C2442   1.300   .     S
O2391  Al2428  1.899   .     S
C2392  C2443   1.370   .     A
C2392  C3250   1.369   1_545 A
C2393  Al2425  1.899   .     S
C2393  C2444   1.300   .     S
O2394  C2444   1.300   .     S
O2394  Al2426  1.899   .     S
C2395  C2517   1.370   .     A
C2396  Al2428  1.899   .     S
C2396  C2446   1.300   .     S
O2397  C2518   1.300   .     S
O2397  Al2427  1.899   .     S
C2398  C2447   1.370   .     A
C2399  Al2426  1.899   .     S
C2399  C2448   1.300   .     S
O2400  C2448   1.300   .     S
O2400  Al2425  1.899   .     S
C2401  C2445   1.370   .     A
C2402  Al2427  1.899   .     S
C2402  C2518   1.300   .     S
O2403  C2446   1.300   .     S
O2403  Al2428  1.899   .     S
C2404  C2447   1.370   .     A
C2404  C2422   1.369   .     A
C2405  Al2425  1.899   .     S
C2405  C2448   1.300   .     S
O2406  C2448   1.300   .     S
O2406  Al2426  1.899   .     S
C2407  C2513   1.370   .     A
C2408  Al2428  1.899   .     S
C2408  C2442   1.300   .     S
O2409  C2514   1.300   .     S
O2409  Al2427  1.899   .     S
C2410  C2443   1.370   .     A
C2410  C3280   1.369   1_545 A
C2411  Al2426  1.899   .     S
C2411  C2444   1.300   .     S
O2412  C2444   1.300   .     S
O2412  Al2425  1.899   .     S
C2413  C2509   1.370   .     A
C2413  C3559   1.369   .     A
C2414  Al2425  1.899   .     S
C2414  C2438   1.300   .     S
O2415  C2510   1.300   .     S
O2415  Al2426  1.899   .     S
C2416  C2439   1.370   .     A
C2416  C2698   1.369   .     A
C2417  Al2427  1.899   .     S
C2417  C2440   1.300   .     S
O2418  C2440   1.300   .     S
O2418  Al2428  1.899   .     S
C2419  C2433   1.370   .     A
C2419  C4417   1.369   1_545 A
C2420  Al2426  1.899   .     S
C2420  C2506   1.300   .     S
O2421  C2434   1.300   .     S
O2421  Al2425  1.899   .     S
C2422  C2435   1.370   .     A
C2423  Al2428  1.899   .     S
C2423  C2436   1.300   .     S
O2424  C2436   1.300   .     S
O2424  Al2427  1.899   .     S
Al2425 O2429   1.959   .     S
Al2425 O2432   1.959   .     S
Al2426 O2501   1.959   .     S
Al2426 O2432   1.959   .     S
Al2427 O2503   1.959   .     S
Al2427 O2430   1.959   .     S
Al2428 O2431   1.959   .     S
Al2428 O2430   1.959   .     S
C2433  C2434   1.500   .     S
C2435  C2436   1.500   .     S
C2437  C2438   1.500   .     S
C2439  C2440   1.500   .     S
C2441  C2442   1.500   .     S
C2443  C2444   1.500   .     S
C2445  C2446   1.500   .     S
C2447  C2448   1.500   .     S
C2449  C2577   1.370   .     A
C2449  C4483   1.369   1_545 A
C2450  Al2497  1.899   .     S
C2450  C2506   1.300   .     S
O2451  C2578   1.300   .     S
O2451  Al2498  1.899   .     S
C2452  C2507   1.370   .     A
C2452  C2470   1.369   .     A
C2453  Al2499  1.899   .     S
C2453  C2508   1.300   .     S
O2454  C2508   1.300   .     S
O2454  Al2500  1.899   .     S
C2455  C2509   1.370   .     A
C2455  C3613   1.369   .     A
C2456  Al2498  1.899   .     S
C2456  C2582   1.300   .     S
O2457  C2510   1.300   .     S
O2457  Al2497  1.899   .     S
C2458  C2511   1.370   .     A
C2458  C2752   1.369   .     A
C2459  Al2500  1.899   .     S
C2459  C2512   1.300   .     S
O2460  C2512   1.300   .     S
O2460  Al2499  1.899   .     S
C2461  C2513   1.370   .     A
C2462  Al2499  1.899   .     S
C2462  C2586   1.300   .     S
O2463  C2514   1.300   .     S
O2463  Al2500  1.899   .     S
C2464  C2515   1.370   .     A
C2464  C3322   1.369   1_545 A
C2465  Al2497  1.899   .     S
C2465  C2516   1.300   .     S
O2466  C2516   1.300   .     S
O2466  Al2498  1.899   .     S
C2467  C2589   1.370   .     A
C2468  Al2500  1.899   .     S
C2468  C2518   1.300   .     S
O2469  C2590   1.300   .     S
O2469  Al2499  1.899   .     S
C2470  C2519   1.370   .     A
C2471  Al2498  1.899   .     S
C2471  C2520   1.300   .     S
O2472  C2520   1.300   .     S
O2472  Al2497  1.899   .     S
C2473  C2517   1.370   .     A
C2474  Al2499  1.899   .     S
C2474  C2590   1.300   .     S
O2475  C2518   1.300   .     S
O2475  Al2500  1.899   .     S
C2476  C2519   1.370   .     A
C2476  C2494   1.369   .     A
C2477  Al2497  1.899   .     S
C2477  C2520   1.300   .     S
O2478  C2520   1.300   .     S
O2478  Al2498  1.899   .     S
C2479  C2585   1.370   .     A
C2480  Al2500  1.899   .     S
C2480  C2514   1.300   .     S
O2481  C2586   1.300   .     S
O2481  Al2499  1.899   .     S
C2482  C2515   1.370   .     A
C2482  C3352   1.369   1_545 A
C2483  Al2498  1.899   .     S
C2483  C2516   1.300   .     S
O2484  C2516   1.300   .     S
O2484  Al2497  1.899   .     S
C2485  C2581   1.370   .     A
C2485  C3631   1.369   .     A
C2486  Al2497  1.899   .     S
C2486  C2510   1.300   .     S
O2487  C2582   1.300   .     S
O2487  Al2498  1.899   .     S
C2488  C2511   1.370   .     A
C2488  C2770   1.369   .     A
C2489  Al2499  1.899   .     S
C2489  C2512   1.300   .     S
O2490  C2512   1.300   .     S
O2490  Al2500  1.899   .     S
C2491  C2505   1.370   .     A
C2491  C4489   1.369   1_545 A
C2492  Al2498  1.899   .     S
C2492  C2578   1.300   .     S
O2493  C2506   1.300   .     S
O2493  Al2497  1.899   .     S
C2494  C2507   1.370   .     A
C2495  Al2500  1.899   .     S
C2495  C2508   1.300   .     S
O2496  C2508   1.300   .     S
O2496  Al2499  1.899   .     S
Al2497 O2501   1.959   .     S
Al2497 O2504   1.959   .     S
Al2498 O2573   1.959   .     S
Al2498 O2504   1.959   .     S
Al2499 O2575   1.959   .     S
Al2499 O2502   1.959   .     S
Al2500 O2503   1.959   .     S
Al2500 O2502   1.959   .     S
C2505  C2506   1.500   .     S
C2507  C2508   1.500   .     S
C2509  C2510   1.500   .     S
C2511  C2512   1.500   .     S
C2513  C2514   1.500   .     S
C2515  C2516   1.500   .     S
C2517  C2518   1.500   .     S
C2519  C2520   1.500   .     S
C2521  C2361   1.370   1_655 A
C2521  C4555   1.369   1_545 A
C2522  Al2569  1.899   .     S
C2522  C2578   1.300   .     S
O2523  C2362   1.300   1_655 S
O2523  Al2570  1.899   .     S
C2524  C2579   1.370   .     A
C2524  C2542   1.369   .     A
C2525  Al2571  1.899   .     S
C2525  C2580   1.300   .     S
O2526  C2580   1.300   .     S
O2526  Al2572  1.899   .     S
C2527  C2581   1.370   .     A
C2527  C3685   1.369   .     A
C2528  Al2570  1.899   .     S
C2528  C2366   1.300   1_655 S
O2529  C2582   1.300   .     S
O2529  Al2569  1.899   .     S
C2530  C2583   1.370   .     A
C2530  C2824   1.369   .     A
C2531  Al2572  1.899   .     S
C2531  C2584   1.300   .     S
O2532  C2584   1.300   .     S
O2532  Al2571  1.899   .     S
C2533  C2585   1.370   .     A
C2534  Al2571  1.899   .     S
C2534  C2370   1.300   1_655 S
O2535  C2586   1.300   .     S
O2535  Al2572  1.899   .     S
C2536  C2587   1.370   .     A
C2536  C3394   1.369   1_545 A
C2537  Al2569  1.899   .     S
C2537  C2588   1.300   .     S
O2538  C2588   1.300   .     S
O2538  Al2570  1.899   .     S
C2539  C2373   1.370   1_655 A
C2540  Al2572  1.899   .     S
C2540  C2590   1.300   .     S
O2541  C2374   1.300   1_655 S
O2541  Al2571  1.899   .     S
C2542  C2591   1.370   .     A
C2543  Al2570  1.899   .     S
C2543  C2592   1.300   .     S
O2544  C2592   1.300   .     S
O2544  Al2569  1.899   .     S
C2545  C2589   1.370   .     A
C2546  Al2571  1.899   .     S
C2546  C2374   1.300   1_655 S
O2547  C2590   1.300   .     S
O2547  Al2572  1.899   .     S
C2548  C2591   1.370   .     A
C2548  C2566   1.369   .     A
C2549  Al2569  1.899   .     S
C2549  C2592   1.300   .     S
O2550  C2592   1.300   .     S
O2550  Al2570  1.899   .     S
C2551  C2369   1.370   1_655 A
C2552  Al2572  1.899   .     S
C2552  C2586   1.300   .     S
O2553  C2370   1.300   1_655 S
O2553  Al2571  1.899   .     S
C2554  C2587   1.370   .     A
C2554  C3424   1.369   1_545 A
C2555  Al2570  1.899   .     S
C2555  C2588   1.300   .     S
O2556  C2588   1.300   .     S
O2556  Al2569  1.899   .     S
C2557  C2365   1.370   1_655 A
C2557  C3703   1.369   .     A
C2558  Al2569  1.899   .     S
C2558  C2582   1.300   .     S
O2559  C2366   1.300   1_655 S
O2559  Al2570  1.899   .     S
C2560  C2583   1.370   .     A
C2560  C2842   1.369   .     A
C2561  Al2571  1.899   .     S
C2561  C2584   1.300   .     S
O2562  C2584   1.300   .     S
O2562  Al2572  1.899   .     S
C2563  C2577   1.370   .     A
C2563  C4561   1.369   1_545 A
C2564  Al2570  1.899   .     S
C2564  C2362   1.300   1_655 S
O2565  C2578   1.300   .     S
O2565  Al2569  1.899   .     S
C2566  C2579   1.370   .     A
C2567  Al2572  1.899   .     S
C2567  C2580   1.300   .     S
O2568  C2580   1.300   .     S
O2568  Al2571  1.899   .     S
Al2569 O2573   1.959   .     S
Al2569 O2576   1.959   .     S
Al2570 O2357   1.959   1_655 S
Al2570 O2576   1.959   .     S
Al2571 O2359   1.959   1_655 S
Al2571 O2574   1.959   .     S
Al2572 O2575   1.959   .     S
Al2572 O2574   1.959   .     S
C2577  C2578   1.500   .     S
C2579  C2580   1.500   .     S
C2581  C2582   1.500   .     S
C2583  C2584   1.500   .     S
C2585  C2586   1.500   .     S
C2587  C2588   1.500   .     S
C2589  C2590   1.500   .     S
C2591  C2592   1.500   .     S
C2593  C2721   1.370   .     A
C2593  C3475   1.369   .     A
C2594  Al2641  1.899   .     S
C2594  C2650   1.300   .     S
O2595  C2722   1.300   .     S
O2595  Al2642  1.899   .     S
C2596  C2651   1.370   .     A
C2596  C2614   1.369   .     A
C2597  Al2643  1.899   .     S
C2597  C2652   1.300   .     S
O2598  C2652   1.300   .     S
O2598  Al2644  1.899   .     S
C2599  C2653   1.370   .     A
C2599  C3757   1.369   .     A
C2600  Al2642  1.899   .     S
C2600  C2726   1.300   .     S
O2601  C2654   1.300   .     S
O2601  Al2641  1.899   .     S
C2602  C2655   1.370   .     A
C2602  C2896   1.369   .     A
C2603  Al2644  1.899   .     S
C2603  C2656   1.300   .     S
O2604  C2656   1.300   .     S
O2604  Al2643  1.899   .     S
C2605  C2657   1.370   .     A
C2606  Al2643  1.899   .     S
C2606  C2730   1.300   .     S
O2607  C2658   1.300   .     S
O2607  Al2644  1.899   .     S
C2608  C2659   1.370   .     A
C2609  Al2641  1.899   .     S
C2609  C2660   1.300   .     S
O2610  C2660   1.300   .     S
O2610  Al2642  1.899   .     S
C2611  C2733   1.370   .     A
C2612  Al2644  1.899   .     S
C2612  C2662   1.300   .     S
O2613  C2734   1.300   .     S
O2613  Al2643  1.899   .     S
C2614  C2663   1.370   .     A
C2615  Al2642  1.899   .     S
C2615  C2664   1.300   .     S
O2616  C2664   1.300   .     S
O2616  Al2641  1.899   .     S
C2617  C2661   1.370   .     A
C2618  Al2643  1.899   .     S
C2618  C2734   1.300   .     S
O2619  C2662   1.300   .     S
O2619  Al2644  1.899   .     S
C2620  C2663   1.370   .     A
C2620  C2638   1.369   .     A
C2621  Al2641  1.899   .     S
C2621  C2664   1.300   .     S
O2622  C2664   1.300   .     S
O2622  Al2642  1.899   .     S
C2623  C2729   1.370   .     A
C2624  Al2644  1.899   .     S
C2624  C2658   1.300   .     S
O2625  C2730   1.300   .     S
O2625  Al2643  1.899   .     S
C2626  C2659   1.370   .     A
C2627  Al2642  1.899   .     S
C2627  C2660   1.300   .     S
O2628  C2660   1.300   .     S
O2628  Al2641  1.899   .     S
C2629  C2725   1.370   .     A
C2629  C3775   1.369   .     A
C2630  Al2641  1.899   .     S
C2630  C2654   1.300   .     S
O2631  C2726   1.300   .     S
O2631  Al2642  1.899   .     S
C2632  C2655   1.370   .     A
C2632  C2914   1.369   .     A
C2633  Al2643  1.899   .     S
C2633  C2656   1.300   .     S
O2634  C2656   1.300   .     S
O2634  Al2644  1.899   .     S
C2635  C2649   1.370   .     A
C2635  C3481   1.369   .     A
C2636  Al2642  1.899   .     S
C2636  C2722   1.300   .     S
O2637  C2650   1.300   .     S
O2637  Al2641  1.899   .     S
C2638  C2651   1.370   .     A
C2639  Al2644  1.899   .     S
C2639  C2652   1.300   .     S
O2640  C2652   1.300   .     S
O2640  Al2643  1.899   .     S
Al2641 O2645   1.959   .     S
Al2641 O2648   1.959   .     S
Al2642 O2717   1.959   .     S
Al2642 O2648   1.959   .     S
Al2643 O2719   1.959   .     S
Al2643 O2646   1.959   .     S
Al2644 O2647   1.959   .     S
Al2644 O2646   1.959   .     S
O2645  Al2858  1.959   1_455 S
O2647  Al2859  1.959   1_455 S
C2649  C2809   1.370   1_455 A
C2649  C2650   1.500   .     S
C2650  C2852   1.300   1_455 S
C2650  O2811   1.300   1_455 S
C2651  C2652   1.500   .     S
C2653  C2845   1.370   1_455 A
C2653  C2654   1.500   .     S
C2654  C2816   1.300   1_455 S
C2654  O2847   1.300   1_455 S
C2655  C2656   1.500   .     S
C2657  C2839   1.370   1_455 A
C2657  C2658   1.500   .     S
C2658  C2822   1.300   1_455 S
C2658  O2841   1.300   1_455 S
C2659  C2660   1.500   .     S
C2661  C2827   1.370   1_455 A
C2661  C2662   1.500   .     S
C2662  C2834   1.300   1_455 S
C2662  O2829   1.300   1_455 S
C2663  C2664   1.500   .     S
C2665  C2793   1.370   .     A
C2665  C3547   1.369   .     A
C2666  Al2713  1.899   .     S
C2666  C2722   1.300   .     S
O2667  C2794   1.300   .     S
O2667  Al2714  1.899   .     S
C2668  C2723   1.370   .     A
C2668  C2686   1.369   .     A
C2669  Al2715  1.899   .     S
C2669  C2724   1.300   .     S
O2670  C2724   1.300   .     S
O2670  Al2716  1.899   .     S
C2671  C2725   1.370   .     A
C2671  C3829   1.369   .     A
C2672  Al2714  1.899   .     S
C2672  C2798   1.300   .     S
O2673  C2726   1.300   .     S
O2673  Al2713  1.899   .     S
C2674  C2727   1.370   .     A
C2674  C2968   1.369   .     A
C2675  Al2716  1.899   .     S
C2675  C2728   1.300   .     S
O2676  C2728   1.300   .     S
O2676  Al2715  1.899   .     S
C2677  C2729   1.370   .     A
C2678  Al2715  1.899   .     S
C2678  C2802   1.300   .     S
O2679  C2730   1.300   .     S
O2679  Al2716  1.899   .     S
C2680  C2731   1.370   .     A
C2681  Al2713  1.899   .     S
C2681  C2732   1.300   .     S
O2682  C2732   1.300   .     S
O2682  Al2714  1.899   .     S
C2683  C2805   1.370   .     A
C2684  Al2716  1.899   .     S
C2684  C2734   1.300   .     S
O2685  C2806   1.300   .     S
O2685  Al2715  1.899   .     S
C2686  C2735   1.370   .     A
C2687  Al2714  1.899   .     S
C2687  C2736   1.300   .     S
O2688  C2736   1.300   .     S
O2688  Al2713  1.899   .     S
C2689  C2733   1.370   .     A
C2690  Al2715  1.899   .     S
C2690  C2806   1.300   .     S
O2691  C2734   1.300   .     S
O2691  Al2716  1.899   .     S
C2692  C2735   1.370   .     A
C2692  C2710   1.369   .     A
C2693  Al2713  1.899   .     S
C2693  C2736   1.300   .     S
O2694  C2736   1.300   .     S
O2694  Al2714  1.899   .     S
C2695  C2801   1.370   .     A
C2696  Al2716  1.899   .     S
C2696  C2730   1.300   .     S
O2697  C2802   1.300   .     S
O2697  Al2715  1.899   .     S
C2698  C2731   1.370   .     A
C2699  Al2714  1.899   .     S
C2699  C2732   1.300   .     S
O2700  C2732   1.300   .     S
O2700  Al2713  1.899   .     S
C2701  C2797   1.370   .     A
C2701  C3847   1.369   .     A
C2702  Al2713  1.899   .     S
C2702  C2726   1.300   .     S
O2703  C2798   1.300   .     S
O2703  Al2714  1.899   .     S
C2704  C2727   1.370   .     A
C2704  C2986   1.369   .     A
C2705  Al2715  1.899   .     S
C2705  C2728   1.300   .     S
O2706  C2728   1.300   .     S
O2706  Al2716  1.899   .     S
C2707  C2721   1.370   .     A
C2707  C3553   1.369   .     A
C2708  Al2714  1.899   .     S
C2708  C2794   1.300   .     S
O2709  C2722   1.300   .     S
O2709  Al2713  1.899   .     S
C2710  C2723   1.370   .     A
C2711  Al2716  1.899   .     S
C2711  C2724   1.300   .     S
O2712  C2724   1.300   .     S
O2712  Al2715  1.899   .     S
Al2713 O2717   1.959   .     S
Al2713 O2720   1.959   .     S
Al2714 O2789   1.959   .     S
Al2714 O2720   1.959   .     S
Al2715 O2791   1.959   .     S
Al2715 O2718   1.959   .     S
Al2716 O2719   1.959   .     S
Al2716 O2718   1.959   .     S
C2721  C2722   1.500   .     S
C2723  C2724   1.500   .     S
C2725  C2726   1.500   .     S
C2727  C2728   1.500   .     S
C2729  C2730   1.500   .     S
C2731  C2732   1.500   .     S
C2733  C2734   1.500   .     S
C2735  C2736   1.500   .     S
C2737  C2865   1.370   .     A
C2737  C3619   1.369   .     A
C2738  Al2785  1.899   .     S
C2738  C2794   1.300   .     S
O2739  C2866   1.300   .     S
O2739  Al2786  1.899   .     S
C2740  C2795   1.370   .     A
C2740  C2758   1.369   .     A
C2741  Al2787  1.899   .     S
C2741  C2796   1.300   .     S
O2742  C2796   1.300   .     S
O2742  Al2788  1.899   .     S
C2743  C2797   1.370   .     A
C2743  C3901   1.369   .     A
C2744  Al2786  1.899   .     S
C2744  C2870   1.300   .     S
O2745  C2798   1.300   .     S
O2745  Al2785  1.899   .     S
C2746  C2799   1.370   .     A
C2746  C3040   1.369   .     A
C2747  Al2788  1.899   .     S
C2747  C2800   1.300   .     S
O2748  C2800   1.300   .     S
O2748  Al2787  1.899   .     S
C2749  C2801   1.370   .     A
C2750  Al2787  1.899   .     S
C2750  C2874   1.300   .     S
O2751  C2802   1.300   .     S
O2751  Al2788  1.899   .     S
C2752  C2803   1.370   .     A
C2753  Al2785  1.899   .     S
C2753  C2804   1.300   .     S
O2754  C2804   1.300   .     S
O2754  Al2786  1.899   .     S
C2755  C2877   1.370   .     A
C2756  Al2788  1.899   .     S
C2756  C2806   1.300   .     S
O2757  C2878   1.300   .     S
O2757  Al2787  1.899   .     S
C2758  C2807   1.370   .     A
C2759  Al2786  1.899   .     S
C2759  C2808   1.300   .     S
O2760  C2808   1.300   .     S
O2760  Al2785  1.899   .     S
C2761  C2805   1.370   .     A
C2762  Al2787  1.899   .     S
C2762  C2878   1.300   .     S
O2763  C2806   1.300   .     S
O2763  Al2788  1.899   .     S
C2764  C2807   1.370   .     A
C2764  C2782   1.369   .     A
C2765  Al2785  1.899   .     S
C2765  C2808   1.300   .     S
O2766  C2808   1.300   .     S
O2766  Al2786  1.899   .     S
C2767  C2873   1.370   .     A
C2768  Al2788  1.899   .     S
C2768  C2802   1.300   .     S
O2769  C2874   1.300   .     S
O2769  Al2787  1.899   .     S
C2770  C2803   1.370   .     A
C2771  Al2786  1.899   .     S
C2771  C2804   1.300   .     S
O2772  C2804   1.300   .     S
O2772  Al2785  1.899   .     S
C2773  C2869   1.370   .     A
C2773  C3919   1.369   .     A
C2774  Al2785  1.899   .     S
C2774  C2798   1.300   .     S
O2775  C2870   1.300   .     S
O2775  Al2786  1.899   .     S
C2776  C2799   1.370   .     A
C2776  C3058   1.369   .     A
C2777  Al2787  1.899   .     S
C2777  C2800   1.300   .     S
O2778  C2800   1.300   .     S
O2778  Al2788  1.899   .     S
C2779  C2793   1.370   .     A
C2779  C3625   1.369   .     A
C2780  Al2786  1.899   .     S
C2780  C2866   1.300   .     S
O2781  C2794   1.300   .     S
O2781  Al2785  1.899   .     S
C2782  C2795   1.370   .     A
C2783  Al2788  1.899   .     S
C2783  C2796   1.300   .     S
O2784  C2796   1.300   .     S
O2784  Al2787  1.899   .     S
Al2785 O2789   1.959   .     S
Al2785 O2792   1.959   .     S
Al2786 O2861   1.959   .     S
Al2786 O2792   1.959   .     S
Al2787 O2863   1.959   .     S
Al2787 O2790   1.959   .     S
Al2788 O2791   1.959   .     S
Al2788 O2790   1.959   .     S
C2793  C2794   1.500   .     S
C2795  C2796   1.500   .     S
C2797  C2798   1.500   .     S
C2799  C2800   1.500   .     S
C2801  C2802   1.500   .     S
C2803  C2804   1.500   .     S
C2805  C2806   1.500   .     S
C2807  C2808   1.500   .     S
C2809  C2649   1.370   1_655 A
C2809  C3691   1.369   .     A
C2810  Al2857  1.899   .     S
C2810  C2866   1.300   .     S
O2811  C2650   1.300   1_655 S
O2811  Al2858  1.899   .     S
C2812  C2867   1.370   .     A
C2812  C2830   1.369   .     A
C2813  Al2859  1.899   .     S
C2813  C2868   1.300   .     S
O2814  C2868   1.300   .     S
O2814  Al2860  1.899   .     S
C2815  C2869   1.370   .     A
C2815  C3973   1.369   .     A
C2816  Al2858  1.899   .     S
C2816  C2654   1.300   1_655 S
O2817  C2870   1.300   .     S
O2817  Al2857  1.899   .     S
C2818  C2871   1.370   .     A
C2818  C3112   1.369   .     A
C2819  Al2860  1.899   .     S
C2819  C2872   1.300   .     S
O2820  C2872   1.300   .     S
O2820  Al2859  1.899   .     S
C2821  C2873   1.370   .     A
C2822  Al2859  1.899   .     S
C2822  C2658   1.300   1_655 S
O2823  C2874   1.300   .     S
O2823  Al2860  1.899   .     S
C2824  C2875   1.370   .     A
C2825  Al2857  1.899   .     S
C2825  C2876   1.300   .     S
O2826  C2876   1.300   .     S
O2826  Al2858  1.899   .     S
C2827  C2661   1.370   1_655 A
C2828  Al2860  1.899   .     S
C2828  C2878   1.300   .     S
O2829  C2662   1.300   1_655 S
O2829  Al2859  1.899   .     S
C2830  C2879   1.370   .     A
C2831  Al2858  1.899   .     S
C2831  C2880   1.300   .     S
O2832  C2880   1.300   .     S
O2832  Al2857  1.899   .     S
C2833  C2877   1.370   .     A
C2834  Al2859  1.899   .     S
C2834  C2662   1.300   1_655 S
O2835  C2878   1.300   .     S
O2835  Al2860  1.899   .     S
C2836  C2879   1.370   .     A
C2836  C2854   1.369   .     A
C2837  Al2857  1.899   .     S
C2837  C2880   1.300   .     S
O2838  C2880   1.300   .     S
O2838  Al2858  1.899   .     S
C2839  C2657   1.370   1_655 A
C2840  Al2860  1.899   .     S
C2840  C2874   1.300   .     S
O2841  C2658   1.300   1_655 S
O2841  Al2859  1.899   .     S
C2842  C2875   1.370   .     A
C2843  Al2858  1.899   .     S
C2843  C2876   1.300   .     S
O2844  C2876   1.300   .     S
O2844  Al2857  1.899   .     S
C2845  C2653   1.370   1_655 A
C2845  C3991   1.369   .     A
C2846  Al2857  1.899   .     S
C2846  C2870   1.300   .     S
O2847  C2654   1.300   1_655 S
O2847  Al2858  1.899   .     S
C2848  C2871   1.370   .     A
C2848  C3130   1.369   .     A
C2849  Al2859  1.899   .     S
C2849  C2872   1.300   .     S
O2850  C2872   1.300   .     S
O2850  Al2860  1.899   .     S
C2851  C2865   1.370   .     A
C2851  C3697   1.369   .     A
C2852  Al2858  1.899   .     S
C2852  C2650   1.300   1_655 S
O2853  C2866   1.300   .     S
O2853  Al2857  1.899   .     S
C2854  C2867   1.370   .     A
C2855  Al2860  1.899   .     S
C2855  C2868   1.300   .     S
O2856  C2868   1.300   .     S
O2856  Al2859  1.899   .     S
Al2857 O2861   1.959   .     S
Al2857 O2864   1.959   .     S
Al2858 O2645   1.959   1_655 S
Al2858 O2864   1.959   .     S
Al2859 O2647   1.959   1_655 S
Al2859 O2862   1.959   .     S
Al2860 O2863   1.959   .     S
Al2860 O2862   1.959   .     S
C2865  C2866   1.500   .     S
C2867  C2868   1.500   .     S
C2869  C2870   1.500   .     S
C2871  C2872   1.500   .     S
C2873  C2874   1.500   .     S
C2875  C2876   1.500   .     S
C2877  C2878   1.500   .     S
C2879  C2880   1.500   .     S
C2881  C3009   1.370   .     A
C2881  C3763   1.369   .     A
C2882  Al2929  1.899   .     S
C2882  C2938   1.300   .     S
O2883  C3010   1.300   .     S
O2883  Al2930  1.899   .     S
C2884  C2939   1.370   .     A
C2884  C2902   1.369   .     A
C2885  Al2931  1.899   .     S
C2885  C2940   1.300   .     S
O2886  C2940   1.300   .     S
O2886  Al2932  1.899   .     S
C2887  C2941   1.370   .     A
C2887  C4045   1.369   .     A
C2888  Al2930  1.899   .     S
C2888  C3014   1.300   .     S
O2889  C2942   1.300   .     S
O2889  Al2929  1.899   .     S
C2890  C2943   1.370   .     A
C2890  C3184   1.369   .     A
C2891  Al2932  1.899   .     S
C2891  C2944   1.300   .     S
O2892  C2944   1.300   .     S
O2892  Al2931  1.899   .     S
C2893  C2945   1.370   .     A
C2894  Al2931  1.899   .     S
C2894  C3018   1.300   .     S
O2895  C2946   1.300   .     S
O2895  Al2932  1.899   .     S
C2896  C2947   1.370   .     A
C2897  Al2929  1.899   .     S
C2897  C2948   1.300   .     S
O2898  C2948   1.300   .     S
O2898  Al2930  1.899   .     S
C2899  C3021   1.370   .     A
C2900  Al2932  1.899   .     S
C2900  C2950   1.300   .     S
O2901  C3022   1.300   .     S
O2901  Al2931  1.899   .     S
C2902  C2951   1.370   .     A
C2903  Al2930  1.899   .     S
C2903  C2952   1.300   .     S
O2904  C2952   1.300   .     S
O2904  Al2929  1.899   .     S
C2905  C2949   1.370   .     A
C2906  Al2931  1.899   .     S
C2906  C3022   1.300   .     S
O2907  C2950   1.300   .     S
O2907  Al2932  1.899   .     S
C2908  C2951   1.370   .     A
C2908  C2926   1.369   .     A
C2909  Al2929  1.899   .     S
C2909  C2952   1.300   .     S
O2910  C2952   1.300   .     S
O2910  Al2930  1.899   .     S
C2911  C3017   1.370   .     A
C2912  Al2932  1.899   .     S
C2912  C2946   1.300   .     S
O2913  C3018   1.300   .     S
O2913  Al2931  1.899   .     S
C2914  C2947   1.370   .     A
C2915  Al2930  1.899   .     S
C2915  C2948   1.300   .     S
O2916  C2948   1.300   .     S
O2916  Al2929  1.899   .     S
C2917  C3013   1.370   .     A
C2917  C4063   1.369   .     A
C2918  Al2929  1.899   .     S
C2918  C2942   1.300   .     S
O2919  C3014   1.300   .     S
O2919  Al2930  1.899   .     S
C2920  C2943   1.370   .     A
C2920  C3202   1.369   .     A
C2921  Al2931  1.899   .     S
C2921  C2944   1.300   .     S
O2922  C2944   1.300   .     S
O2922  Al2932  1.899   .     S
C2923  C2937   1.370   .     A
C2923  C3769   1.369   .     A
C2924  Al2930  1.899   .     S
C2924  C3010   1.300   .     S
O2925  C2938   1.300   .     S
O2925  Al2929  1.899   .     S
C2926  C2939   1.370   .     A
C2927  Al2932  1.899   .     S
C2927  C2940   1.300   .     S
O2928  C2940   1.300   .     S
O2928  Al2931  1.899   .     S
Al2929 O2933   1.959   .     S
Al2929 O2936   1.959   .     S
Al2930 O3005   1.959   .     S
Al2930 O2936   1.959   .     S
Al2931 O3007   1.959   .     S
Al2931 O2934   1.959   .     S
Al2932 O2935   1.959   .     S
Al2932 O2934   1.959   .     S
O2933  Al3146  1.959   1_455 S
O2935  Al3147  1.959   1_455 S
C2937  C3097   1.370   1_455 A
C2937  C2938   1.500   .     S
C2938  C3140   1.300   1_455 S
C2938  O3099   1.300   1_455 S
C2939  C2940   1.500   .     S
C2941  C3133   1.370   1_455 A
C2941  C2942   1.500   .     S
C2942  C3104   1.300   1_455 S
C2942  O3135   1.300   1_455 S
C2943  C2944   1.500   .     S
C2945  C3127   1.370   1_455 A
C2945  C2946   1.500   .     S
C2946  C3110   1.300   1_455 S
C2946  O3129   1.300   1_455 S
C2947  C2948   1.500   .     S
C2949  C3115   1.370   1_455 A
C2949  C2950   1.500   .     S
C2950  C3122   1.300   1_455 S
C2950  O3117   1.300   1_455 S
C2951  C2952   1.500   .     S
C2953  C3081   1.370   .     A
C2953  C3835   1.369   .     A
C2954  Al3001  1.899   .     S
C2954  C3010   1.300   .     S
O2955  C3082   1.300   .     S
O2955  Al3002  1.899   .     S
C2956  C3011   1.370   .     A
C2956  C2974   1.369   .     A
C2957  Al3003  1.899   .     S
C2957  C3012   1.300   .     S
O2958  C3012   1.300   .     S
O2958  Al3004  1.899   .     S
C2959  C3013   1.370   .     A
C2959  C4117   1.369   .     A
C2960  Al3002  1.899   .     S
C2960  C3086   1.300   .     S
O2961  C3014   1.300   .     S
O2961  Al3001  1.899   .     S
C2962  C3015   1.370   .     A
C2962  C3256   1.369   .     A
C2963  Al3004  1.899   .     S
C2963  C3016   1.300   .     S
O2964  C3016   1.300   .     S
O2964  Al3003  1.899   .     S
C2965  C3017   1.370   .     A
C2966  Al3003  1.899   .     S
C2966  C3090   1.300   .     S
O2967  C3018   1.300   .     S
O2967  Al3004  1.899   .     S
C2968  C3019   1.370   .     A
C2969  Al3001  1.899   .     S
C2969  C3020   1.300   .     S
O2970  C3020   1.300   .     S
O2970  Al3002  1.899   .     S
C2971  C3093   1.370   .     A
C2972  Al3004  1.899   .     S
C2972  C3022   1.300   .     S
O2973  C3094   1.300   .     S
O2973  Al3003  1.899   .     S
C2974  C3023   1.370   .     A
C2975  Al3002  1.899   .     S
C2975  C3024   1.300   .     S
O2976  C3024   1.300   .     S
O2976  Al3001  1.899   .     S
C2977  C3021   1.370   .     A
C2978  Al3003  1.899   .     S
C2978  C3094   1.300   .     S
O2979  C3022   1.300   .     S
O2979  Al3004  1.899   .     S
C2980  C3023   1.370   .     A
C2980  C2998   1.369   .     A
C2981  Al3001  1.899   .     S
C2981  C3024   1.300   .     S
O2982  C3024   1.300   .     S
O2982  Al3002  1.899   .     S
C2983  C3089   1.370   .     A
C2984  Al3004  1.899   .     S
C2984  C3018   1.300   .     S
O2985  C3090   1.300   .     S
O2985  Al3003  1.899   .     S
C2986  C3019   1.370   .     A
C2987  Al3002  1.899   .     S
C2987  C3020   1.300   .     S
O2988  C3020   1.300   .     S
O2988  Al3001  1.899   .     S
C2989  C3085   1.370   .     A
C2989  C4135   1.369   .     A
C2990  Al3001  1.899   .     S
C2990  C3014   1.300   .     S
O2991  C3086   1.300   .     S
O2991  Al3002  1.899   .     S
C2992  C3015   1.370   .     A
C2992  C3274   1.369   .     A
C2993  Al3003  1.899   .     S
C2993  C3016   1.300   .     S
O2994  C3016   1.300   .     S
O2994  Al3004  1.899   .     S
C2995  C3009   1.370   .     A
C2995  C3841   1.369   .     A
C2996  Al3002  1.899   .     S
C2996  C3082   1.300   .     S
O2997  C3010   1.300   .     S
O2997  Al3001  1.899   .     S
C2998  C3011   1.370   .     A
C2999  Al3004  1.899   .     S
C2999  C3012   1.300   .     S
O3000  C3012   1.300   .     S
O3000  Al3003  1.899   .     S
Al3001 O3005   1.959   .     S
Al3001 O3008   1.959   .     S
Al3002 O3077   1.959   .     S
Al3002 O3008   1.959   .     S
Al3003 O3079   1.959   .     S
Al3003 O3006   1.959   .     S
Al3004 O3007   1.959   .     S
Al3004 O3006   1.959   .     S
C3009  C3010   1.500   .     S
C3011  C3012   1.500   .     S
C3013  C3014   1.500   .     S
C3015  C3016   1.500   .     S
C3017  C3018   1.500   .     S
C3019  C3020   1.500   .     S
C3021  C3022   1.500   .     S
C3023  C3024   1.500   .     S
C3025  C3153   1.370   .     A
C3025  C3907   1.369   .     A
C3026  Al3073  1.899   .     S
C3026  C3082   1.300   .     S
O3027  C3154   1.300   .     S
O3027  Al3074  1.899   .     S
C3028  C3083   1.370   .     A
C3028  C3046   1.369   .     A
C3029  Al3075  1.899   .     S
C3029  C3084   1.300   .     S
O3030  C3084   1.300   .     S
O3030  Al3076  1.899   .     S
C3031  C3085   1.370   .     A
C3031  C4189   1.369   .     A
C3032  Al3074  1.899   .     S
C3032  C3158   1.300   .     S
O3033  C3086   1.300   .     S
O3033  Al3073  1.899   .     S
C3034  C3087   1.370   .     A
C3034  C3328   1.369   .     A
C3035  Al3076  1.899   .     S
C3035  C3088   1.300   .     S
O3036  C3088   1.300   .     S
O3036  Al3075  1.899   .     S
C3037  C3089   1.370   .     A
C3038  Al3075  1.899   .     S
C3038  C3162   1.300   .     S
O3039  C3090   1.300   .     S
O3039  Al3076  1.899   .     S
C3040  C3091   1.370   .     A
C3041  Al3073  1.899   .     S
C3041  C3092   1.300   .     S
O3042  C3092   1.300   .     S
O3042  Al3074  1.899   .     S
C3043  C3165   1.370   .     A
C3044  Al3076  1.899   .     S
C3044  C3094   1.300   .     S
O3045  C3166   1.300   .     S
O3045  Al3075  1.899   .     S
C3046  C3095   1.370   .     A
C3047  Al3074  1.899   .     S
C3047  C3096   1.300   .     S
O3048  C3096   1.300   .     S
O3048  Al3073  1.899   .     S
C3049  C3093   1.370   .     A
C3050  Al3075  1.899   .     S
C3050  C3166   1.300   .     S
O3051  C3094   1.300   .     S
O3051  Al3076  1.899   .     S
C3052  C3095   1.370   .     A
C3052  C3070   1.369   .     A
C3053  Al3073  1.899   .     S
C3053  C3096   1.300   .     S
O3054  C3096   1.300   .     S
O3054  Al3074  1.899   .     S
C3055  C3161   1.370   .     A
C3056  Al3076  1.899   .     S
C3056  C3090   1.300   .     S
O3057  C3162   1.300   .     S
O3057  Al3075  1.899   .     S
C3058  C3091   1.370   .     A
C3059  Al3074  1.899   .     S
C3059  C3092   1.300   .     S
O3060  C3092   1.300   .     S
O3060  Al3073  1.899   .     S
C3061  C3157   1.370   .     A
C3061  C4207   1.369   .     A
C3062  Al3073  1.899   .     S
C3062  C3086   1.300   .     S
O3063  C3158   1.300   .     S
O3063  Al3074  1.899   .     S
C3064  C3087   1.370   .     A
C3064  C3346   1.369   .     A
C3065  Al3075  1.899   .     S
C3065  C3088   1.300   .     S
O3066  C3088   1.300   .     S
O3066  Al3076  1.899   .     S
C3067  C3081   1.370   .     A
C3067  C3913   1.369   .     A
C3068  Al3074  1.899   .     S
C3068  C3154   1.300   .     S
O3069  C3082   1.300   .     S
O3069  Al3073  1.899   .     S
C3070  C3083   1.370   .     A
C3071  Al3076  1.899   .     S
C3071  C3084   1.300   .     S
O3072  C3084   1.300   .     S
O3072  Al3075  1.899   .     S
Al3073 O3077   1.959   .     S
Al3073 O3080   1.959   .     S
Al3074 O3149   1.959   .     S
Al3074 O3080   1.959   .     S
Al3075 O3151   1.959   .     S
Al3075 O3078   1.959   .     S
Al3076 O3079   1.959   .     S
Al3076 O3078   1.959   .     S
C3081  C3082   1.500   .     S
C3083  C3084   1.500   .     S
C3085  C3086   1.500   .     S
C3087  C3088   1.500   .     S
C3089  C3090   1.500   .     S
C3091  C3092   1.500   .     S
C3093  C3094   1.500   .     S
C3095  C3096   1.500   .     S
C3097  C2937   1.370   1_655 A
C3097  C3979   1.369   .     A
C3098  Al3145  1.899   .     S
C3098  C3154   1.300   .     S
O3099  C2938   1.300   1_655 S
O3099  Al3146  1.899   .     S
C3100  C3155   1.370   .     A
C3100  C3118   1.369   .     A
C3101  Al3147  1.899   .     S
C3101  C3156   1.300   .     S
O3102  C3156   1.300   .     S
O3102  Al3148  1.899   .     S
C3103  C3157   1.370   .     A
C3103  C4261   1.369   .     A
C3104  Al3146  1.899   .     S
C3104  C2942   1.300   1_655 S
O3105  C3158   1.300   .     S
O3105  Al3145  1.899   .     S
C3106  C3159   1.370   .     A
C3106  C3400   1.369   .     A
C3107  Al3148  1.899   .     S
C3107  C3160   1.300   .     S
O3108  C3160   1.300   .     S
O3108  Al3147  1.899   .     S
C3109  C3161   1.370   .     A
C3110  Al3147  1.899   .     S
C3110  C2946   1.300   1_655 S
O3111  C3162   1.300   .     S
O3111  Al3148  1.899   .     S
C3112  C3163   1.370   .     A
C3113  Al3145  1.899   .     S
C3113  C3164   1.300   .     S
O3114  C3164   1.300   .     S
O3114  Al3146  1.899   .     S
C3115  C2949   1.370   1_655 A
C3116  Al3148  1.899   .     S
C3116  C3166   1.300   .     S
O3117  C2950   1.300   1_655 S
O3117  Al3147  1.899   .     S
C3118  C3167   1.370   .     A
C3119  Al3146  1.899   .     S
C3119  C3168   1.300   .     S
O3120  C3168   1.300   .     S
O3120  Al3145  1.899   .     S
C3121  C3165   1.370   .     A
C3122  Al3147  1.899   .     S
C3122  C2950   1.300   1_655 S
O3123  C3166   1.300   .     S
O3123  Al3148  1.899   .     S
C3124  C3167   1.370   .     A
C3124  C3142   1.369   .     A
C3125  Al3145  1.899   .     S
C3125  C3168   1.300   .     S
O3126  C3168   1.300   .     S
O3126  Al3146  1.899   .     S
C3127  C2945   1.370   1_655 A
C3128  Al3148  1.899   .     S
C3128  C3162   1.300   .     S
O3129  C2946   1.300   1_655 S
O3129  Al3147  1.899   .     S
C3130  C3163   1.370   .     A
C3131  Al3146  1.899   .     S
C3131  C3164   1.300   .     S
O3132  C3164   1.300   .     S
O3132  Al3145  1.899   .     S
C3133  C2941   1.370   1_655 A
C3133  C4279   1.369   .     A
C3134  Al3145  1.899   .     S
C3134  C3158   1.300   .     S
O3135  C2942   1.300   1_655 S
O3135  Al3146  1.899   .     S
C3136  C3159   1.370   .     A
C3136  C3418   1.369   .     A
C3137  Al3147  1.899   .     S
C3137  C3160   1.300   .     S
O3138  C3160   1.300   .     S
O3138  Al3148  1.899   .     S
C3139  C3153   1.370   .     A
C3139  C3985   1.369   .     A
C3140  Al3146  1.899   .     S
C3140  C2938   1.300   1_655 S
O3141  C3154   1.300   .     S
O3141  Al3145  1.899   .     S
C3142  C3155   1.370   .     A
C3143  Al3148  1.899   .     S
C3143  C3156   1.300   .     S
O3144  C3156   1.300   .     S
O3144  Al3147  1.899   .     S
Al3145 O3149   1.959   .     S
Al3145 O3152   1.959   .     S
Al3146 O2933   1.959   1_655 S
Al3146 O3152   1.959   .     S
Al3147 O2935   1.959   1_655 S
Al3147 O3150   1.959   .     S
Al3148 O3151   1.959   .     S
Al3148 O3150   1.959   .     S
C3153  C3154   1.500   .     S
C3155  C3156   1.500   .     S
C3157  C3158   1.500   .     S
C3159  C3160   1.500   .     S
C3161  C3162   1.500   .     S
C3163  C3164   1.500   .     S
C3165  C3166   1.500   .     S
C3167  C3168   1.500   .     S
C3169  C3297   1.370   .     A
C3169  C4051   1.369   .     A
C3170  Al3217  1.899   .     S
C3170  C3226   1.300   .     S
O3171  C3298   1.300   .     S
O3171  Al3218  1.899   .     S
C3172  C3227   1.370   .     A
C3172  C3190   1.369   .     A
C3173  Al3219  1.899   .     S
C3173  C3228   1.300   .     S
O3174  C3228   1.300   .     S
O3174  Al3220  1.899   .     S
C3175  C3229   1.370   .     A
C3175  C4333   1.369   .     A
C3176  Al3218  1.899   .     S
C3176  C3302   1.300   .     S
O3177  C3230   1.300   .     S
O3177  Al3217  1.899   .     S
C3178  C3231   1.370   .     A
C3178  C2320   1.369   1_565 A
C3179  Al3220  1.899   .     S
C3179  C3232   1.300   .     S
O3180  C3232   1.300   .     S
O3180  Al3219  1.899   .     S
C3181  C3233   1.370   .     A
C3182  Al3219  1.899   .     S
C3182  C3306   1.300   .     S
O3183  C3234   1.300   .     S
O3183  Al3220  1.899   .     S
C3184  C3235   1.370   .     A
C3185  Al3217  1.899   .     S
C3185  C3236   1.300   .     S
O3186  C3236   1.300   .     S
O3186  Al3218  1.899   .     S
C3187  C3309   1.370   .     A
C3187  C1153   1.369   1_565 A
C3188  Al3220  1.899   .     S
C3188  C3238   1.300   .     S
O3189  C3310   1.300   .     S
O3189  Al3219  1.899   .     S
C3190  C3239   1.370   .     A
C3191  Al3218  1.899   .     S
C3191  C3240   1.300   .     S
O3192  C3240   1.300   .     S
O3192  Al3217  1.899   .     S
C3193  C3237   1.370   .     A
C3193  C1195   1.369   1_565 A
C3194  Al3219  1.899   .     S
C3194  C3310   1.300   .     S
O3195  C3238   1.300   .     S
O3195  Al3220  1.899   .     S
C3196  C3239   1.370   .     A
C3196  C3214   1.369   .     A
C3197  Al3217  1.899   .     S
C3197  C3240   1.300   .     S
O3198  C3240   1.300   .     S
O3198  Al3218  1.899   .     S
C3199  C3305   1.370   .     A
C3200  Al3220  1.899   .     S
C3200  C3234   1.300   .     S
O3201  C3306   1.300   .     S
O3201  Al3219  1.899   .     S
C3202  C3235   1.370   .     A
C3203  Al3218  1.899   .     S
C3203  C3236   1.300   .     S
O3204  C3236   1.300   .     S
O3204  Al3217  1.899   .     S
C3205  C3301   1.370   .     A
C3205  C4351   1.369   .     A
C3206  Al3217  1.899   .     S
C3206  C3230   1.300   .     S
O3207  C3302   1.300   .     S
O3207  Al3218  1.899   .     S
C3208  C3231   1.370   .     A
C3208  C2338   1.369   1_565 A
C3209  Al3219  1.899   .     S
C3209  C3232   1.300   .     S
O3210  C3232   1.300   .     S
O3210  Al3220  1.899   .     S
C3211  C3225   1.370   .     A
C3211  C4057   1.369   .     A
C3212  Al3218  1.899   .     S
C3212  C3298   1.300   .     S
O3213  C3226   1.300   .     S
O3213  Al3217  1.899   .     S
C3214  C3227   1.370   .     A
C3215  Al3220  1.899   .     S
C3215  C3228   1.300   .     S
O3216  C3228   1.300   .     S
O3216  Al3219  1.899   .     S
Al3217 O3221   1.959   .     S
Al3217 O3224   1.959   .     S
Al3218 O3293   1.959   .     S
Al3218 O3224   1.959   .     S
Al3219 O3295   1.959   .     S
Al3219 O3222   1.959   .     S
Al3220 O3223   1.959   .     S
Al3220 O3222   1.959   .     S
O3221  Al3434  1.959   1_455 S
O3223  Al3435  1.959   1_455 S
C3225  C3385   1.370   1_455 A
C3225  C3226   1.500   .     S
C3226  C3428   1.300   1_455 S
C3226  O3387   1.300   1_455 S
C3227  C3228   1.500   .     S
C3229  C3421   1.370   1_455 A
C3229  C3230   1.500   .     S
C3230  C3392   1.300   1_455 S
C3230  O3423   1.300   1_455 S
C3231  C3232   1.500   .     S
C3233  C3415   1.370   1_455 A
C3233  C3234   1.500   .     S
C3234  C3398   1.300   1_455 S
C3234  O3417   1.300   1_455 S
C3235  C3236   1.500   .     S
C3237  C3403   1.370   1_455 A
C3237  C3238   1.500   .     S
C3238  C3410   1.300   1_455 S
C3238  O3405   1.300   1_455 S
C3239  C3240   1.500   .     S
C3241  C3369   1.370   .     A
C3241  C4123   1.369   .     A
C3242  Al3289  1.899   .     S
C3242  C3298   1.300   .     S
O3243  C3370   1.300   .     S
O3243  Al3290  1.899   .     S
C3244  C3299   1.370   .     A
C3244  C3262   1.369   .     A
C3245  Al3291  1.899   .     S
C3245  C3300   1.300   .     S
O3246  C3300   1.300   .     S
O3246  Al3292  1.899   .     S
C3247  C3301   1.370   .     A
C3247  C4405   1.369   .     A
C3248  Al3290  1.899   .     S
C3248  C3374   1.300   .     S
O3249  C3302   1.300   .     S
O3249  Al3289  1.899   .     S
C3250  C3303   1.370   .     A
C3250  C2392   1.369   1_565 A
C3251  Al3292  1.899   .     S
C3251  C3304   1.300   .     S
O3252  C3304   1.300   .     S
O3252  Al3291  1.899   .     S
C3253  C3305   1.370   .     A
C3254  Al3291  1.899   .     S
C3254  C3378   1.300   .     S
O3255  C3306   1.300   .     S
O3255  Al3292  1.899   .     S
C3256  C3307   1.370   .     A
C3257  Al3289  1.899   .     S
C3257  C3308   1.300   .     S
O3258  C3308   1.300   .     S
O3258  Al3290  1.899   .     S
C3259  C3381   1.370   .     A
C3259  C1225   1.369   1_565 A
C3260  Al3292  1.899   .     S
C3260  C3310   1.300   .     S
O3261  C3382   1.300   .     S
O3261  Al3291  1.899   .     S
C3262  C3311   1.370   .     A
C3263  Al3290  1.899   .     S
C3263  C3312   1.300   .     S
O3264  C3312   1.300   .     S
O3264  Al3289  1.899   .     S
C3265  C3309   1.370   .     A
C3265  C1267   1.369   1_565 A
C3266  Al3291  1.899   .     S
C3266  C3382   1.300   .     S
O3267  C3310   1.300   .     S
O3267  Al3292  1.899   .     S
C3268  C3311   1.370   .     A
C3268  C3286   1.369   .     A
C3269  Al3289  1.899   .     S
C3269  C3312   1.300   .     S
O3270  C3312   1.300   .     S
O3270  Al3290  1.899   .     S
C3271  C3377   1.370   .     A
C3272  Al3292  1.899   .     S
C3272  C3306   1.300   .     S
O3273  C3378   1.300   .     S
O3273  Al3291  1.899   .     S
C3274  C3307   1.370   .     A
C3275  Al3290  1.899   .     S
C3275  C3308   1.300   .     S
O3276  C3308   1.300   .     S
O3276  Al3289  1.899   .     S
C3277  C3373   1.370   .     A
C3277  C4423   1.369   .     A
C3278  Al3289  1.899   .     S
C3278  C3302   1.300   .     S
O3279  C3374   1.300   .     S
O3279  Al3290  1.899   .     S
C3280  C3303   1.370   .     A
C3280  C2410   1.369   1_565 A
C3281  Al3291  1.899   .     S
C3281  C3304   1.300   .     S
O3282  C3304   1.300   .     S
O3282  Al3292  1.899   .     S
C3283  C3297   1.370   .     A
C3283  C4129   1.369   .     A
C3284  Al3290  1.899   .     S
C3284  C3370   1.300   .     S
O3285  C3298   1.300   .     S
O3285  Al3289  1.899   .     S
C3286  C3299   1.370   .     A
C3287  Al3292  1.899   .     S
C3287  C3300   1.300   .     S
O3288  C3300   1.300   .     S
O3288  Al3291  1.899   .     S
Al3289 O3293   1.959   .     S
Al3289 O3296   1.959   .     S
Al3290 O3365   1.959   .     S
Al3290 O3296   1.959   .     S
Al3291 O3367   1.959   .     S
Al3291 O3294   1.959   .     S
Al3292 O3295   1.959   .     S
Al3292 O3294   1.959   .     S
C3297  C3298   1.500   .     S
C3299  C3300   1.500   .     S
C3301  C3302   1.500   .     S
C3303  C3304   1.500   .     S
C3305  C3306   1.500   .     S
C3307  C3308   1.500   .     S
C3309  C3310   1.500   .     S
C3311  C3312   1.500   .     S
C3313  C3441   1.370   .     A
C3313  C4195   1.369   .     A
C3314  Al3361  1.899   .     S
C3314  C3370   1.300   .     S
O3315  C3442   1.300   .     S
O3315  Al3362  1.899   .     S
C3316  C3371   1.370   .     A
C3316  C3334   1.369   .     A
C3317  Al3363  1.899   .     S
C3317  C3372   1.300   .     S
O3318  C3372   1.300   .     S
O3318  Al3364  1.899   .     S
C3319  C3373   1.370   .     A
C3319  C4477   1.369   .     A
C3320  Al3362  1.899   .     S
C3320  C3446   1.300   .     S
O3321  C3374   1.300   .     S
O3321  Al3361  1.899   .     S
C3322  C3375   1.370   .     A
C3322  C2464   1.369   1_565 A
C3323  Al3364  1.899   .     S
C3323  C3376   1.300   .     S
O3324  C3376   1.300   .     S
O3324  Al3363  1.899   .     S
C3325  C3377   1.370   .     A
C3326  Al3363  1.899   .     S
C3326  C3450   1.300   .     S
O3327  C3378   1.300   .     S
O3327  Al3364  1.899   .     S
C3328  C3379   1.370   .     A
C3329  Al3361  1.899   .     S
C3329  C3380   1.300   .     S
O3330  C3380   1.300   .     S
O3330  Al3362  1.899   .     S
C3331  C3453   1.370   .     A
C3331  C1297   1.369   1_565 A
C3332  Al3364  1.899   .     S
C3332  C3382   1.300   .     S
O3333  C3454   1.300   .     S
O3333  Al3363  1.899   .     S
C3334  C3383   1.370   .     A
C3335  Al3362  1.899   .     S
C3335  C3384   1.300   .     S
O3336  C3384   1.300   .     S
O3336  Al3361  1.899   .     S
C3337  C3381   1.370   .     A
C3337  C1339   1.369   1_565 A
C3338  Al3363  1.899   .     S
C3338  C3454   1.300   .     S
O3339  C3382   1.300   .     S
O3339  Al3364  1.899   .     S
C3340  C3383   1.370   .     A
C3340  C3358   1.369   .     A
C3341  Al3361  1.899   .     S
C3341  C3384   1.300   .     S
O3342  C3384   1.300   .     S
O3342  Al3362  1.899   .     S
C3343  C3449   1.370   .     A
C3344  Al3364  1.899   .     S
C3344  C3378   1.300   .     S
O3345  C3450   1.300   .     S
O3345  Al3363  1.899   .     S
C3346  C3379   1.370   .     A
C3347  Al3362  1.899   .     S
C3347  C3380   1.300   .     S
O3348  C3380   1.300   .     S
O3348  Al3361  1.899   .     S
C3349  C3445   1.370   .     A
C3349  C4495   1.369   .     A
C3350  Al3361  1.899   .     S
C3350  C3374   1.300   .     S
O3351  C3446   1.300   .     S
O3351  Al3362  1.899   .     S
C3352  C3375   1.370   .     A
C3352  C2482   1.369   1_565 A
C3353  Al3363  1.899   .     S
C3353  C3376   1.300   .     S
O3354  C3376   1.300   .     S
O3354  Al3364  1.899   .     S
C3355  C3369   1.370   .     A
C3355  C4201   1.369   .     A
C3356  Al3362  1.899   .     S
C3356  C3442   1.300   .     S
O3357  C3370   1.300   .     S
O3357  Al3361  1.899   .     S
C3358  C3371   1.370   .     A
C3359  Al3364  1.899   .     S
C3359  C3372   1.300   .     S
O3360  C3372   1.300   .     S
O3360  Al3363  1.899   .     S
Al3361 O3365   1.959   .     S
Al3361 O3368   1.959   .     S
Al3362 O3437   1.959   .     S
Al3362 O3368   1.959   .     S
Al3363 O3439   1.959   .     S
Al3363 O3366   1.959   .     S
Al3364 O3367   1.959   .     S
Al3364 O3366   1.959   .     S
C3369  C3370   1.500   .     S
C3371  C3372   1.500   .     S
C3373  C3374   1.500   .     S
C3375  C3376   1.500   .     S
C3377  C3378   1.500   .     S
C3379  C3380   1.500   .     S
C3381  C3382   1.500   .     S
C3383  C3384   1.500   .     S
C3385  C3225   1.370   1_655 A
C3385  C4267   1.369   .     A
C3386  Al3433  1.899   .     S
C3386  C3442   1.300   .     S
O3387  C3226   1.300   1_655 S
O3387  Al3434  1.899   .     S
C3388  C3443   1.370   .     A
C3388  C3406   1.369   .     A
C3389  Al3435  1.899   .     S
C3389  C3444   1.300   .     S
O3390  C3444   1.300   .     S
O3390  Al3436  1.899   .     S
C3391  C3445   1.370   .     A
C3391  C4549   1.369   .     A
C3392  Al3434  1.899   .     S
C3392  C3230   1.300   1_655 S
O3393  C3446   1.300   .     S
O3393  Al3433  1.899   .     S
C3394  C3447   1.370   .     A
C3394  C2536   1.369   1_565 A
C3395  Al3436  1.899   .     S
C3395  C3448   1.300   .     S
O3396  C3448   1.300   .     S
O3396  Al3435  1.899   .     S
C3397  C3449   1.370   .     A
C3398  Al3435  1.899   .     S
C3398  C3234   1.300   1_655 S
O3399  C3450   1.300   .     S
O3399  Al3436  1.899   .     S
C3400  C3451   1.370   .     A
C3401  Al3433  1.899   .     S
C3401  C3452   1.300   .     S
O3402  C3452   1.300   .     S
O3402  Al3434  1.899   .     S
C3403  C3237   1.370   1_655 A
C3403  C1369   1.369   1_565 A
C3404  Al3436  1.899   .     S
C3404  C3454   1.300   .     S
O3405  C3238   1.300   1_655 S
O3405  Al3435  1.899   .     S
C3406  C3455   1.370   .     A
C3407  Al3434  1.899   .     S
C3407  C3456   1.300   .     S
O3408  C3456   1.300   .     S
O3408  Al3433  1.899   .     S
C3409  C3453   1.370   .     A
C3409  C1411   1.369   1_565 A
C3410  Al3435  1.899   .     S
C3410  C3238   1.300   1_655 S
O3411  C3454   1.300   .     S
O3411  Al3436  1.899   .     S
C3412  C3455   1.370   .     A
C3412  C3430   1.369   .     A
C3413  Al3433  1.899   .     S
C3413  C3456   1.300   .     S
O3414  C3456   1.300   .     S
O3414  Al3434  1.899   .     S
C3415  C3233   1.370   1_655 A
C3416  Al3436  1.899   .     S
C3416  C3450   1.300   .     S
O3417  C3234   1.300   1_655 S
O3417  Al3435  1.899   .     S
C3418  C3451   1.370   .     A
C3419  Al3434  1.899   .     S
C3419  C3452   1.300   .     S
O3420  C3452   1.300   .     S
O3420  Al3433  1.899   .     S
C3421  C3229   1.370   1_655 A
C3421  C4567   1.369   .     A
C3422  Al3433  1.899   .     S
C3422  C3446   1.300   .     S
O3423  C3230   1.300   1_655 S
O3423  Al3434  1.899   .     S
C3424  C3447   1.370   .     A
C3424  C2554   1.369   1_565 A
C3425  Al3435  1.899   .     S
C3425  C3448   1.300   .     S
O3426  C3448   1.300   .     S
O3426  Al3436  1.899   .     S
C3427  C3441   1.370   .     A
C3427  C4273   1.369   .     A
C3428  Al3434  1.899   .     S
C3428  C3226   1.300   1_655 S
O3429  C3442   1.300   .     S
O3429  Al3433  1.899   .     S
C3430  C3443   1.370   .     A
C3431  Al3436  1.899   .     S
C3431  C3444   1.300   .     S
O3432  C3444   1.300   .     S
O3432  Al3435  1.899   .     S
Al3433 O3437   1.959   .     S
Al3433 O3440   1.959   .     S
Al3434 O3221   1.959   1_655 S
Al3434 O3440   1.959   .     S
Al3435 O3223   1.959   1_655 S
Al3435 O3438   1.959   .     S
Al3436 O3439   1.959   .     S
Al3436 O3438   1.959   .     S
C3441  C3442   1.500   .     S
C3443  C3444   1.500   .     S
C3445  C3446   1.500   .     S
C3447  C3448   1.500   .     S
C3449  C3450   1.500   .     S
C3451  C3452   1.500   .     S
C3453  C3454   1.500   .     S
C3455  C3456   1.500   .     S
C3457  C3585   1.370   .     A
C3457  C883    1.369   1_546 A
C3458  Al3505  1.899   .     S
C3458  C3514   1.300   .     S
O3459  C3586   1.300   .     S
O3459  Al3506  1.899   .     S
C3460  C3515   1.370   .     A
C3460  C3478   1.369   .     A
C3461  Al3507  1.899   .     S
C3461  C3516   1.300   .     S
O3462  C3516   1.300   .     S
O3462  Al3508  1.899   .     S
C3463  C3517   1.370   .     A
C3463  C13     1.369   1_556 A
C3464  Al3506  1.899   .     S
C3464  C3590   1.300   .     S
O3465  C3518   1.300   .     S
O3465  Al3505  1.899   .     S
C3466  C3519   1.370   .     A
C3466  C3760   1.369   .     A
C3467  Al3508  1.899   .     S
C3467  C3520   1.300   .     S
O3468  C3520   1.300   .     S
O3468  Al3507  1.899   .     S
C3469  C3521   1.370   .     A
C3470  Al3507  1.899   .     S
C3470  C3594   1.300   .     S
O3471  C3522   1.300   .     S
O3471  Al3508  1.899   .     S
C3472  C3523   1.370   .     A
C3472  C4330   1.369   1_545 A
C3473  Al3505  1.899   .     S
C3473  C3524   1.300   .     S
O3474  C3524   1.300   .     S
O3474  Al3506  1.899   .     S
C3475  C3597   1.370   .     A
C3476  Al3508  1.899   .     S
C3476  C3526   1.300   .     S
O3477  C3598   1.300   .     S
O3477  Al3507  1.899   .     S
C3478  C3527   1.370   .     A
C3479  Al3506  1.899   .     S
C3479  C3528   1.300   .     S
O3480  C3528   1.300   .     S
O3480  Al3505  1.899   .     S
C3481  C3525   1.370   .     A
C3482  Al3507  1.899   .     S
C3482  C3598   1.300   .     S
O3483  C3526   1.300   .     S
O3483  Al3508  1.899   .     S
C3484  C3527   1.370   .     A
C3484  C3502   1.369   .     A
C3485  Al3505  1.899   .     S
C3485  C3528   1.300   .     S
O3486  C3528   1.300   .     S
O3486  Al3506  1.899   .     S
C3487  C3593   1.370   .     A
C3488  Al3508  1.899   .     S
C3488  C3522   1.300   .     S
O3489  C3594   1.300   .     S
O3489  Al3507  1.899   .     S
C3490  C3523   1.370   .     A
C3490  C4360   1.369   1_545 A
C3491  Al3506  1.899   .     S
C3491  C3524   1.300   .     S
O3492  C3524   1.300   .     S
O3492  Al3505  1.899   .     S
C3493  C3589   1.370   .     A
C3493  C31     1.369   1_556 A
C3494  Al3505  1.899   .     S
C3494  C3518   1.300   .     S
O3495  C3590   1.300   .     S
O3495  Al3506  1.899   .     S
C3496  C3519   1.370   .     A
C3496  C3778   1.369   .     A
C3497  Al3507  1.899   .     S
C3497  C3520   1.300   .     S
O3498  C3520   1.300   .     S
O3498  Al3508  1.899   .     S
C3499  C3513   1.370   .     A
C3499  C889    1.369   1_546 A
C3500  Al3506  1.899   .     S
C3500  C3586   1.300   .     S
O3501  C3514   1.300   .     S
O3501  Al3505  1.899   .     S
C3502  C3515   1.370   .     A
C3503  Al3508  1.899   .     S
C3503  C3516   1.300   .     S
O3504  C3516   1.300   .     S
O3504  Al3507  1.899   .     S
Al3505 O3509   1.959   .     S
Al3505 O3512   1.959   .     S
Al3506 O3581   1.959   .     S
Al3506 O3512   1.959   .     S
Al3507 O3583   1.959   .     S
Al3507 O3510   1.959   .     S
Al3508 O3511   1.959   .     S
Al3508 O3510   1.959   .     S
O3509  Al3722  1.959   1_455 S
O3511  Al3723  1.959   1_455 S
C3513  C3673   1.370   1_455 A
C3513  C3514   1.500   .     S
C3514  C3716   1.300   1_455 S
C3514  O3675   1.300   1_455 S
C3515  C3516   1.500   .     S
C3517  C3709   1.370   1_455 A
C3517  C3518   1.500   .     S
C3518  C3680   1.300   1_455 S
C3518  O3711   1.300   1_455 S
C3519  C3520   1.500   .     S
C3521  C3703   1.370   1_455 A
C3521  C3522   1.500   .     S
C3522  C3686   1.300   1_455 S
C3522  O3705   1.300   1_455 S
C3523  C3524   1.500   .     S
C3525  C3691   1.370   1_455 A
C3525  C3526   1.500   .     S
C3526  C3698   1.300   1_455 S
C3526  O3693   1.300   1_455 S
C3527  C3528   1.500   .     S
C3529  C3657   1.370   .     A
C3529  C955    1.369   1_546 A
C3530  Al3577  1.899   .     S
C3530  C3586   1.300   .     S
O3531  C3658   1.300   .     S
O3531  Al3578  1.899   .     S
C3532  C3587   1.370   .     A
C3532  C3550   1.369   .     A
C3533  Al3579  1.899   .     S
C3533  C3588   1.300   .     S
O3534  C3588   1.300   .     S
O3534  Al3580  1.899   .     S
C3535  C3589   1.370   .     A
C3535  C85     1.369   1_556 A
C3536  Al3578  1.899   .     S
C3536  C3662   1.300   .     S
O3537  C3590   1.300   .     S
O3537  Al3577  1.899   .     S
C3538  C3591   1.370   .     A
C3538  C3832   1.369   .     A
C3539  Al3580  1.899   .     S
C3539  C3592   1.300   .     S
O3540  C3592   1.300   .     S
O3540  Al3579  1.899   .     S
C3541  C3593   1.370   .     A
C3542  Al3579  1.899   .     S
C3542  C3666   1.300   .     S
O3543  C3594   1.300   .     S
O3543  Al3580  1.899   .     S
C3544  C3595   1.370   .     A
C3544  C4402   1.369   1_545 A
C3545  Al3577  1.899   .     S
C3545  C3596   1.300   .     S
O3546  C3596   1.300   .     S
O3546  Al3578  1.899   .     S
C3547  C3669   1.370   .     A
C3548  Al3580  1.899   .     S
C3548  C3598   1.300   .     S
O3549  C3670   1.300   .     S
O3549  Al3579  1.899   .     S
C3550  C3599   1.370   .     A
C3551  Al3578  1.899   .     S
C3551  C3600   1.300   .     S
O3552  C3600   1.300   .     S
O3552  Al3577  1.899   .     S
C3553  C3597   1.370   .     A
C3554  Al3579  1.899   .     S
C3554  C3670   1.300   .     S
O3555  C3598   1.300   .     S
O3555  Al3580  1.899   .     S
C3556  C3599   1.370   .     A
C3556  C3574   1.369   .     A
C3557  Al3577  1.899   .     S
C3557  C3600   1.300   .     S
O3558  C3600   1.300   .     S
O3558  Al3578  1.899   .     S
C3559  C3665   1.370   .     A
C3560  Al3580  1.899   .     S
C3560  C3594   1.300   .     S
O3561  C3666   1.300   .     S
O3561  Al3579  1.899   .     S
C3562  C3595   1.370   .     A
C3562  C4432   1.369   1_545 A
C3563  Al3578  1.899   .     S
C3563  C3596   1.300   .     S
O3564  C3596   1.300   .     S
O3564  Al3577  1.899   .     S
C3565  C3661   1.370   .     A
C3565  C103    1.369   1_556 A
C3566  Al3577  1.899   .     S
C3566  C3590   1.300   .     S
O3567  C3662   1.300   .     S
O3567  Al3578  1.899   .     S
C3568  C3591   1.370   .     A
C3568  C3850   1.369   .     A
C3569  Al3579  1.899   .     S
C3569  C3592   1.300   .     S
O3570  C3592   1.300   .     S
O3570  Al3580  1.899   .     S
C3571  C3585   1.370   .     A
C3571  C961    1.369   1_546 A
C3572  Al3578  1.899   .     S
C3572  C3658   1.300   .     S
O3573  C3586   1.300   .     S
O3573  Al3577  1.899   .     S
C3574  C3587   1.370   .     A
C3575  Al3580  1.899   .     S
C3575  C3588   1.300   .     S
O3576  C3588   1.300   .     S
O3576  Al3579  1.899   .     S
Al3577 O3581   1.959   .     S
Al3577 O3584   1.959   .     S
Al3578 O3653   1.959   .     S
Al3578 O3584   1.959   .     S
Al3579 O3655   1.959   .     S
Al3579 O3582   1.959   .     S
Al3580 O3583   1.959   .     S
Al3580 O3582   1.959   .     S
C3585  C3586   1.500   .     S
C3587  C3588   1.500   .     S
C3589  C3590   1.500   .     S
C3591  C3592   1.500   .     S
C3593  C3594   1.500   .     S
C3595  C3596   1.500   .     S
C3597  C3598   1.500   .     S
C3599  C3600   1.500   .     S
C3601  C3729   1.370   .     A
C3601  C1027   1.369   1_546 A
C3602  Al3649  1.899   .     S
C3602  C3658   1.300   .     S
O3603  C3730   1.300   .     S
O3603  Al3650  1.899   .     S
C3604  C3659   1.370   .     A
C3604  C3622   1.369   .     A
C3605  Al3651  1.899   .     S
C3605  C3660   1.300   .     S
O3606  C3660   1.300   .     S
O3606  Al3652  1.899   .     S
C3607  C3661   1.370   .     A
C3607  C157    1.369   1_556 A
C3608  Al3650  1.899   .     S
C3608  C3734   1.300   .     S
O3609  C3662   1.300   .     S
O3609  Al3649  1.899   .     S
C3610  C3663   1.370   .     A
C3610  C3904   1.369   .     A
C3611  Al3652  1.899   .     S
C3611  C3664   1.300   .     S
O3612  C3664   1.300   .     S
O3612  Al3651  1.899   .     S
C3613  C3665   1.370   .     A
C3614  Al3651  1.899   .     S
C3614  C3738   1.300   .     S
O3615  C3666   1.300   .     S
O3615  Al3652  1.899   .     S
C3616  C3667   1.370   .     A
C3616  C4474   1.369   1_545 A
C3617  Al3649  1.899   .     S
C3617  C3668   1.300   .     S
O3618  C3668   1.300   .     S
O3618  Al3650  1.899   .     S
C3619  C3741   1.370   .     A
C3620  Al3652  1.899   .     S
C3620  C3670   1.300   .     S
O3621  C3742   1.300   .     S
O3621  Al3651  1.899   .     S
C3622  C3671   1.370   .     A
C3623  Al3650  1.899   .     S
C3623  C3672   1.300   .     S
O3624  C3672   1.300   .     S
O3624  Al3649  1.899   .     S
C3625  C3669   1.370   .     A
C3626  Al3651  1.899   .     S
C3626  C3742   1.300   .     S
O3627  C3670   1.300   .     S
O3627  Al3652  1.899   .     S
C3628  C3671   1.370   .     A
C3628  C3646   1.369   .     A
C3629  Al3649  1.899   .     S
C3629  C3672   1.300   .     S
O3630  C3672   1.300   .     S
O3630  Al3650  1.899   .     S
C3631  C3737   1.370   .     A
C3632  Al3652  1.899   .     S
C3632  C3666   1.300   .     S
O3633  C3738   1.300   .     S
O3633  Al3651  1.899   .     S
C3634  C3667   1.370   .     A
C3634  C4504   1.369   1_545 A
C3635  Al3650  1.899   .     S
C3635  C3668   1.300   .     S
O3636  C3668   1.300   .     S
O3636  Al3649  1.899   .     S
C3637  C3733   1.370   .     A
C3637  C175    1.369   1_556 A
C3638  Al3649  1.899   .     S
C3638  C3662   1.300   .     S
O3639  C3734   1.300   .     S
O3639  Al3650  1.899   .     S
C3640  C3663   1.370   .     A
C3640  C3922   1.369   .     A
C3641  Al3651  1.899   .     S
C3641  C3664   1.300   .     S
O3642  C3664   1.300   .     S
O3642  Al3652  1.899   .     S
C3643  C3657   1.370   .     A
C3643  C1033   1.369   1_546 A
C3644  Al3650  1.899   .     S
C3644  C3730   1.300   .     S
O3645  C3658   1.300   .     S
O3645  Al3649  1.899   .     S
C3646  C3659   1.370   .     A
C3647  Al3652  1.899   .     S
C3647  C3660   1.300   .     S
O3648  C3660   1.300   .     S
O3648  Al3651  1.899   .     S
Al3649 O3653   1.959   .     S
Al3649 O3656   1.959   .     S
Al3650 O3725   1.959   .     S
Al3650 O3656   1.959   .     S
Al3651 O3727   1.959   .     S
Al3651 O3654   1.959   .     S
Al3652 O3655   1.959   .     S
Al3652 O3654   1.959   .     S
C3657  C3658   1.500   .     S
C3659  C3660   1.500   .     S
C3661  C3662   1.500   .     S
C3663  C3664   1.500   .     S
C3665  C3666   1.500   .     S
C3667  C3668   1.500   .     S
C3669  C3670   1.500   .     S
C3671  C3672   1.500   .     S
C3673  C3513   1.370   1_655 A
C3673  C1099   1.369   1_546 A
C3674  Al3721  1.899   .     S
C3674  C3730   1.300   .     S
O3675  C3514   1.300   1_655 S
O3675  Al3722  1.899   .     S
C3676  C3731   1.370   .     A
C3676  C3694   1.369   .     A
C3677  Al3723  1.899   .     S
C3677  C3732   1.300   .     S
O3678  C3732   1.300   .     S
O3678  Al3724  1.899   .     S
C3679  C3733   1.370   .     A
C3679  C229    1.369   1_556 A
C3680  Al3722  1.899   .     S
C3680  C3518   1.300   1_655 S
O3681  C3734   1.300   .     S
O3681  Al3721  1.899   .     S
C3682  C3735   1.370   .     A
C3682  C3976   1.369   .     A
C3683  Al3724  1.899   .     S
C3683  C3736   1.300   .     S
O3684  C3736   1.300   .     S
O3684  Al3723  1.899   .     S
C3685  C3737   1.370   .     A
C3686  Al3723  1.899   .     S
C3686  C3522   1.300   1_655 S
O3687  C3738   1.300   .     S
O3687  Al3724  1.899   .     S
C3688  C3739   1.370   .     A
C3688  C4546   1.369   1_545 A
C3689  Al3721  1.899   .     S
C3689  C3740   1.300   .     S
O3690  C3740   1.300   .     S
O3690  Al3722  1.899   .     S
C3691  C3525   1.370   1_655 A
C3692  Al3724  1.899   .     S
C3692  C3742   1.300   .     S
O3693  C3526   1.300   1_655 S
O3693  Al3723  1.899   .     S
C3694  C3743   1.370   .     A
C3695  Al3722  1.899   .     S
C3695  C3744   1.300   .     S
O3696  C3744   1.300   .     S
O3696  Al3721  1.899   .     S
C3697  C3741   1.370   .     A
C3698  Al3723  1.899   .     S
C3698  C3526   1.300   1_655 S
O3699  C3742   1.300   .     S
O3699  Al3724  1.899   .     S
C3700  C3743   1.370   .     A
C3700  C3718   1.369   .     A
C3701  Al3721  1.899   .     S
C3701  C3744   1.300   .     S
O3702  C3744   1.300   .     S
O3702  Al3722  1.899   .     S
C3703  C3521   1.370   1_655 A
C3704  Al3724  1.899   .     S
C3704  C3738   1.300   .     S
O3705  C3522   1.300   1_655 S
O3705  Al3723  1.899   .     S
C3706  C3739   1.370   .     A
C3706  C4576   1.369   1_545 A
C3707  Al3722  1.899   .     S
C3707  C3740   1.300   .     S
O3708  C3740   1.300   .     S
O3708  Al3721  1.899   .     S
C3709  C3517   1.370   1_655 A
C3709  C247    1.369   1_556 A
C3710  Al3721  1.899   .     S
C3710  C3734   1.300   .     S
O3711  C3518   1.300   1_655 S
O3711  Al3722  1.899   .     S
C3712  C3735   1.370   .     A
C3712  C3994   1.369   .     A
C3713  Al3723  1.899   .     S
C3713  C3736   1.300   .     S
O3714  C3736   1.300   .     S
O3714  Al3724  1.899   .     S
C3715  C3729   1.370   .     A
C3715  C1105   1.369   1_546 A
C3716  Al3722  1.899   .     S
C3716  C3514   1.300   1_655 S
O3717  C3730   1.300   .     S
O3717  Al3721  1.899   .     S
C3718  C3731   1.370   .     A
C3719  Al3724  1.899   .     S
C3719  C3732   1.300   .     S
O3720  C3732   1.300   .     S
O3720  Al3723  1.899   .     S
Al3721 O3725   1.959   .     S
Al3721 O3728   1.959   .     S
Al3722 O3509   1.959   1_655 S
Al3722 O3728   1.959   .     S
Al3723 O3511   1.959   1_655 S
Al3723 O3726   1.959   .     S
Al3724 O3727   1.959   .     S
Al3724 O3726   1.959   .     S
C3729  C3730   1.500   .     S
C3731  C3732   1.500   .     S
C3733  C3734   1.500   .     S
C3735  C3736   1.500   .     S
C3737  C3738   1.500   .     S
C3739  C3740   1.500   .     S
C3741  C3742   1.500   .     S
C3743  C3744   1.500   .     S
C3745  C3873   1.370   .     A
C3745  C19     1.369   1_556 A
C3746  Al3793  1.899   .     S
C3746  C3802   1.300   .     S
O3747  C3874   1.300   .     S
O3747  Al3794  1.899   .     S
C3748  C3803   1.370   .     A
C3748  C3766   1.369   .     A
C3749  Al3795  1.899   .     S
C3749  C3804   1.300   .     S
O3750  C3804   1.300   .     S
O3750  Al3796  1.899   .     S
C3751  C3805   1.370   .     A
C3751  C301    1.369   1_556 A
C3752  Al3794  1.899   .     S
C3752  C3878   1.300   .     S
O3753  C3806   1.300   .     S
O3753  Al3793  1.899   .     S
C3754  C3807   1.370   .     A
C3754  C4048   1.369   .     A
C3755  Al3796  1.899   .     S
C3755  C3808   1.300   .     S
O3756  C3808   1.300   .     S
O3756  Al3795  1.899   .     S
C3757  C3809   1.370   .     A
C3758  Al3795  1.899   .     S
C3758  C3882   1.300   .     S
O3759  C3810   1.300   .     S
O3759  Al3796  1.899   .     S
C3760  C3811   1.370   .     A
C3761  Al3793  1.899   .     S
C3761  C3812   1.300   .     S
O3762  C3812   1.300   .     S
O3762  Al3794  1.899   .     S
C3763  C3885   1.370   .     A
C3764  Al3796  1.899   .     S
C3764  C3814   1.300   .     S
O3765  C3886   1.300   .     S
O3765  Al3795  1.899   .     S
C3766  C3815   1.370   .     A
C3767  Al3794  1.899   .     S
C3767  C3816   1.300   .     S
O3768  C3816   1.300   .     S
O3768  Al3793  1.899   .     S
C3769  C3813   1.370   .     A
C3770  Al3795  1.899   .     S
C3770  C3886   1.300   .     S
O3771  C3814   1.300   .     S
O3771  Al3796  1.899   .     S
C3772  C3815   1.370   .     A
C3772  C3790   1.369   .     A
C3773  Al3793  1.899   .     S
C3773  C3816   1.300   .     S
O3774  C3816   1.300   .     S
O3774  Al3794  1.899   .     S
C3775  C3881   1.370   .     A
C3776  Al3796  1.899   .     S
C3776  C3810   1.300   .     S
O3777  C3882   1.300   .     S
O3777  Al3795  1.899   .     S
C3778  C3811   1.370   .     A
C3779  Al3794  1.899   .     S
C3779  C3812   1.300   .     S
O3780  C3812   1.300   .     S
O3780  Al3793  1.899   .     S
C3781  C3877   1.370   .     A
C3781  C319    1.369   1_556 A
C3782  Al3793  1.899   .     S
C3782  C3806   1.300   .     S
O3783  C3878   1.300   .     S
O3783  Al3794  1.899   .     S
C3784  C3807   1.370   .     A
C3784  C4066   1.369   .     A
C3785  Al3795  1.899   .     S
C3785  C3808   1.300   .     S
O3786  C3808   1.300   .     S
O3786  Al3796  1.899   .     S
C3787  C3801   1.370   .     A
C3787  C25     1.369   1_556 A
C3788  Al3794  1.899   .     S
C3788  C3874   1.300   .     S
O3789  C3802   1.300   .     S
O3789  Al3793  1.899   .     S
C3790  C3803   1.370   .     A
C3791  Al3796  1.899   .     S
C3791  C3804   1.300   .     S
O3792  C3804   1.300   .     S
O3792  Al3795  1.899   .     S
Al3793 O3797   1.959   .     S
Al3793 O3800   1.959   .     S
Al3794 O3869   1.959   .     S
Al3794 O3800   1.959   .     S
Al3795 O3871   1.959   .     S
Al3795 O3798   1.959   .     S
Al3796 O3799   1.959   .     S
Al3796 O3798   1.959   .     S
O3797  Al4010  1.959   1_455 S
O3799  Al4011  1.959   1_455 S
C3801  C3961   1.370   1_455 A
C3801  C3802   1.500   .     S
C3802  C4004   1.300   1_455 S
C3802  O3963   1.300   1_455 S
C3803  C3804   1.500   .     S
C3805  C3997   1.370   1_455 A
C3805  C3806   1.500   .     S
C3806  C3968   1.300   1_455 S
C3806  O3999   1.300   1_455 S
C3807  C3808   1.500   .     S
C3809  C3991   1.370   1_455 A
C3809  C3810   1.500   .     S
C3810  C3974   1.300   1_455 S
C3810  O3993   1.300   1_455 S
C3811  C3812   1.500   .     S
C3813  C3979   1.370   1_455 A
C3813  C3814   1.500   .     S
C3814  C3986   1.300   1_455 S
C3814  O3981   1.300   1_455 S
C3815  C3816   1.500   .     S
C3817  C3945   1.370   .     A
C3817  C91     1.369   1_556 A
C3818  Al3865  1.899   .     S
C3818  C3874   1.300   .     S
O3819  C3946   1.300   .     S
O3819  Al3866  1.899   .     S
C3820  C3875   1.370   .     A
C3820  C3838   1.369   .     A
C3821  Al3867  1.899   .     S
C3821  C3876   1.300   .     S
O3822  C3876   1.300   .     S
O3822  Al3868  1.899   .     S
C3823  C3877   1.370   .     A
C3823  C373    1.369   1_556 A
C3824  Al3866  1.899   .     S
C3824  C3950   1.300   .     S
O3825  C3878   1.300   .     S
O3825  Al3865  1.899   .     S
C3826  C3879   1.370   .     A
C3826  C4120   1.369   .     A
C3827  Al3868  1.899   .     S
C3827  C3880   1.300   .     S
O3828  C3880   1.300   .     S
O3828  Al3867  1.899   .     S
C3829  C3881   1.370   .     A
C3830  Al3867  1.899   .     S
C3830  C3954   1.300   .     S
O3831  C3882   1.300   .     S
O3831  Al3868  1.899   .     S
C3832  C3883   1.370   .     A
C3833  Al3865  1.899   .     S
C3833  C3884   1.300   .     S
O3834  C3884   1.300   .     S
O3834  Al3866  1.899   .     S
C3835  C3957   1.370   .     A
C3836  Al3868  1.899   .     S
C3836  C3886   1.300   .     S
O3837  C3958   1.300   .     S
O3837  Al3867  1.899   .     S
C3838  C3887   1.370   .     A
C3839  Al3866  1.899   .     S
C3839  C3888   1.300   .     S
O3840  C3888   1.300   .     S
O3840  Al3865  1.899   .     S
C3841  C3885   1.370   .     A
C3842  Al3867  1.899   .     S
C3842  C3958   1.300   .     S
O3843  C3886   1.300   .     S
O3843  Al3868  1.899   .     S
C3844  C3887   1.370   .     A
C3844  C3862   1.369   .     A
C3845  Al3865  1.899   .     S
C3845  C3888   1.300   .     S
O3846  C3888   1.300   .     S
O3846  Al3866  1.899   .     S
C3847  C3953   1.370   .     A
C3848  Al3868  1.899   .     S
C3848  C3882   1.300   .     S
O3849  C3954   1.300   .     S
O3849  Al3867  1.899   .     S
C3850  C3883   1.370   .     A
C3851  Al3866  1.899   .     S
C3851  C3884   1.300   .     S
O3852  C3884   1.300   .     S
O3852  Al3865  1.899   .     S
C3853  C3949   1.370   .     A
C3853  C391    1.369   1_556 A
C3854  Al3865  1.899   .     S
C3854  C3878   1.300   .     S
O3855  C3950   1.300   .     S
O3855  Al3866  1.899   .     S
C3856  C3879   1.370   .     A
C3856  C4138   1.369   .     A
C3857  Al3867  1.899   .     S
C3857  C3880   1.300   .     S
O3858  C3880   1.300   .     S
O3858  Al3868  1.899   .     S
C3859  C3873   1.370   .     A
C3859  C97     1.369   1_556 A
C3860  Al3866  1.899   .     S
C3860  C3946   1.300   .     S
O3861  C3874   1.300   .     S
O3861  Al3865  1.899   .     S
C3862  C3875   1.370   .     A
C3863  Al3868  1.899   .     S
C3863  C3876   1.300   .     S
O3864  C3876   1.300   .     S
O3864  Al3867  1.899   .     S
Al3865 O3869   1.959   .     S
Al3865 O3872   1.959   .     S
Al3866 O3941   1.959   .     S
Al3866 O3872   1.959   .     S
Al3867 O3943   1.959   .     S
Al3867 O3870   1.959   .     S
Al3868 O3871   1.959   .     S
Al3868 O3870   1.959   .     S
C3873  C3874   1.500   .     S
C3875  C3876   1.500   .     S
C3877  C3878   1.500   .     S
C3879  C3880   1.500   .     S
C3881  C3882   1.500   .     S
C3883  C3884   1.500   .     S
C3885  C3886   1.500   .     S
C3887  C3888   1.500   .     S
C3889  C4017   1.370   .     A
C3889  C163    1.369   1_556 A
C3890  Al3937  1.899   .     S
C3890  C3946   1.300   .     S
O3891  C4018   1.300   .     S
O3891  Al3938  1.899   .     S
C3892  C3947   1.370   .     A
C3892  C3910   1.369   .     A
C3893  Al3939  1.899   .     S
C3893  C3948   1.300   .     S
O3894  C3948   1.300   .     S
O3894  Al3940  1.899   .     S
C3895  C3949   1.370   .     A
C3895  C445    1.369   1_556 A
C3896  Al3938  1.899   .     S
C3896  C4022   1.300   .     S
O3897  C3950   1.300   .     S
O3897  Al3937  1.899   .     S
C3898  C3951   1.370   .     A
C3898  C4192   1.369   .     A
C3899  Al3940  1.899   .     S
C3899  C3952   1.300   .     S
O3900  C3952   1.300   .     S
O3900  Al3939  1.899   .     S
C3901  C3953   1.370   .     A
C3902  Al3939  1.899   .     S
C3902  C4026   1.300   .     S
O3903  C3954   1.300   .     S
O3903  Al3940  1.899   .     S
C3904  C3955   1.370   .     A
C3905  Al3937  1.899   .     S
C3905  C3956   1.300   .     S
O3906  C3956   1.300   .     S
O3906  Al3938  1.899   .     S
C3907  C4029   1.370   .     A
C3908  Al3940  1.899   .     S
C3908  C3958   1.300   .     S
O3909  C4030   1.300   .     S
O3909  Al3939  1.899   .     S
C3910  C3959   1.370   .     A
C3911  Al3938  1.899   .     S
C3911  C3960   1.300   .     S
O3912  C3960   1.300   .     S
O3912  Al3937  1.899   .     S
C3913  C3957   1.370   .     A
C3914  Al3939  1.899   .     S
C3914  C4030   1.300   .     S
O3915  C3958   1.300   .     S
O3915  Al3940  1.899   .     S
C3916  C3959   1.370   .     A
C3916  C3934   1.369   .     A
C3917  Al3937  1.899   .     S
C3917  C3960   1.300   .     S
O3918  C3960   1.300   .     S
O3918  Al3938  1.899   .     S
C3919  C4025   1.370   .     A
C3920  Al3940  1.899   .     S
C3920  C3954   1.300   .     S
O3921  C4026   1.300   .     S
O3921  Al3939  1.899   .     S
C3922  C3955   1.370   .     A
C3923  Al3938  1.899   .     S
C3923  C3956   1.300   .     S
O3924  C3956   1.300   .     S
O3924  Al3937  1.899   .     S
C3925  C4021   1.370   .     A
C3925  C463    1.369   1_556 A
C3926  Al3937  1.899   .     S
C3926  C3950   1.300   .     S
O3927  C4022   1.300   .     S
O3927  Al3938  1.899   .     S
C3928  C3951   1.370   .     A
C3928  C4210   1.369   .     A
C3929  Al3939  1.899   .     S
C3929  C3952   1.300   .     S
O3930  C3952   1.300   .     S
O3930  Al3940  1.899   .     S
C3931  C3945   1.370   .     A
C3931  C169    1.369   1_556 A
C3932  Al3938  1.899   .     S
C3932  C4018   1.300   .     S
O3933  C3946   1.300   .     S
O3933  Al3937  1.899   .     S
C3934  C3947   1.370   .     A
C3935  Al3940  1.899   .     S
C3935  C3948   1.300   .     S
O3936  C3948   1.300   .     S
O3936  Al3939  1.899   .     S
Al3937 O3941   1.959   .     S
Al3937 O3944   1.959   .     S
Al3938 O4013   1.959   .     S
Al3938 O3944   1.959   .     S
Al3939 O4015   1.959   .     S
Al3939 O3942   1.959   .     S
Al3940 O3943   1.959   .     S
Al3940 O3942   1.959   .     S
C3945  C3946   1.500   .     S
C3947  C3948   1.500   .     S
C3949  C3950   1.500   .     S
C3951  C3952   1.500   .     S
C3953  C3954   1.500   .     S
C3955  C3956   1.500   .     S
C3957  C3958   1.500   .     S
C3959  C3960   1.500   .     S
C3961  C3801   1.370   1_655 A
C3961  C235    1.369   1_556 A
C3962  Al4009  1.899   .     S
C3962  C4018   1.300   .     S
O3963  C3802   1.300   1_655 S
O3963  Al4010  1.899   .     S
C3964  C4019   1.370   .     A
C3964  C3982   1.369   .     A
C3965  Al4011  1.899   .     S
C3965  C4020   1.300   .     S
O3966  C4020   1.300   .     S
O3966  Al4012  1.899   .     S
C3967  C4021   1.370   .     A
C3967  C517    1.369   1_556 A
C3968  Al4010  1.899   .     S
C3968  C3806   1.300   1_655 S
O3969  C4022   1.300   .     S
O3969  Al4009  1.899   .     S
C3970  C4023   1.370   .     A
C3970  C4264   1.369   .     A
C3971  Al4012  1.899   .     S
C3971  C4024   1.300   .     S
O3972  C4024   1.300   .     S
O3972  Al4011  1.899   .     S
C3973  C4025   1.370   .     A
C3974  Al4011  1.899   .     S
C3974  C3810   1.300   1_655 S
O3975  C4026   1.300   .     S
O3975  Al4012  1.899   .     S
C3976  C4027   1.370   .     A
C3977  Al4009  1.899   .     S
C3977  C4028   1.300   .     S
O3978  C4028   1.300   .     S
O3978  Al4010  1.899   .     S
C3979  C3813   1.370   1_655 A
C3980  Al4012  1.899   .     S
C3980  C4030   1.300   .     S
O3981  C3814   1.300   1_655 S
O3981  Al4011  1.899   .     S
C3982  C4031   1.370   .     A
C3983  Al4010  1.899   .     S
C3983  C4032   1.300   .     S
O3984  C4032   1.300   .     S
O3984  Al4009  1.899   .     S
C3985  C4029   1.370   .     A
C3986  Al4011  1.899   .     S
C3986  C3814   1.300   1_655 S
O3987  C4030   1.300   .     S
O3987  Al4012  1.899   .     S
C3988  C4031   1.370   .     A
C3988  C4006   1.369   .     A
C3989  Al4009  1.899   .     S
C3989  C4032   1.300   .     S
O3990  C4032   1.300   .     S
O3990  Al4010  1.899   .     S
C3991  C3809   1.370   1_655 A
C3992  Al4012  1.899   .     S
C3992  C4026   1.300   .     S
O3993  C3810   1.300   1_655 S
O3993  Al4011  1.899   .     S
C3994  C4027   1.370   .     A
C3995  Al4010  1.899   .     S
C3995  C4028   1.300   .     S
O3996  C4028   1.300   .     S
O3996  Al4009  1.899   .     S
C3997  C3805   1.370   1_655 A
C3997  C535    1.369   1_556 A
C3998  Al4009  1.899   .     S
C3998  C4022   1.300   .     S
O3999  C3806   1.300   1_655 S
O3999  Al4010  1.899   .     S
C4000  C4023   1.370   .     A
C4000  C4282   1.369   .     A
C4001  Al4011  1.899   .     S
C4001  C4024   1.300   .     S
O4002  C4024   1.300   .     S
O4002  Al4012  1.899   .     S
C4003  C4017   1.370   .     A
C4003  C241    1.369   1_556 A
C4004  Al4010  1.899   .     S
C4004  C3802   1.300   1_655 S
O4005  C4018   1.300   .     S
O4005  Al4009  1.899   .     S
C4006  C4019   1.370   .     A
C4007  Al4012  1.899   .     S
C4007  C4020   1.300   .     S
O4008  C4020   1.300   .     S
O4008  Al4011  1.899   .     S
Al4009 O4013   1.959   .     S
Al4009 O4016   1.959   .     S
Al4010 O3797   1.959   1_655 S
Al4010 O4016   1.959   .     S
Al4011 O3799   1.959   1_655 S
Al4011 O4014   1.959   .     S
Al4012 O4015   1.959   .     S
Al4012 O4014   1.959   .     S
C4017  C4018   1.500   .     S
C4019  C4020   1.500   .     S
C4021  C4022   1.500   .     S
C4023  C4024   1.500   .     S
C4025  C4026   1.500   .     S
C4027  C4028   1.500   .     S
C4029  C4030   1.500   .     S
C4031  C4032   1.500   .     S
C4033  C4161   1.370   .     A
C4033  C307    1.369   1_556 A
C4034  Al4081  1.899   .     S
C4034  C4090   1.300   .     S
O4035  C4162   1.300   .     S
O4035  Al4082  1.899   .     S
C4036  C4091   1.370   .     A
C4036  C4054   1.369   .     A
C4037  Al4083  1.899   .     S
C4037  C4092   1.300   .     S
O4038  C4092   1.300   .     S
O4038  Al4084  1.899   .     S
C4039  C4093   1.370   .     A
C4039  C589    1.369   1_556 A
C4040  Al4082  1.899   .     S
C4040  C4166   1.300   .     S
O4041  C4094   1.300   .     S
O4041  Al4081  1.899   .     S
C4042  C4095   1.370   .     A
C4042  C4336   1.369   .     A
C4043  Al4084  1.899   .     S
C4043  C4096   1.300   .     S
O4044  C4096   1.300   .     S
O4044  Al4083  1.899   .     S
C4045  C4097   1.370   .     A
C4046  Al4083  1.899   .     S
C4046  C4170   1.300   .     S
O4047  C4098   1.300   .     S
O4047  Al4084  1.899   .     S
C4048  C4099   1.370   .     A
C4049  Al4081  1.899   .     S
C4049  C4100   1.300   .     S
O4050  C4100   1.300   .     S
O4050  Al4082  1.899   .     S
C4051  C4173   1.370   .     A
C4052  Al4084  1.899   .     S
C4052  C4102   1.300   .     S
O4053  C4174   1.300   .     S
O4053  Al4083  1.899   .     S
C4054  C4103   1.370   .     A
C4055  Al4082  1.899   .     S
C4055  C4104   1.300   .     S
O4056  C4104   1.300   .     S
O4056  Al4081  1.899   .     S
C4057  C4101   1.370   .     A
C4058  Al4083  1.899   .     S
C4058  C4174   1.300   .     S
O4059  C4102   1.300   .     S
O4059  Al4084  1.899   .     S
C4060  C4103   1.370   .     A
C4060  C4078   1.369   .     A
C4061  Al4081  1.899   .     S
C4061  C4104   1.300   .     S
O4062  C4104   1.300   .     S
O4062  Al4082  1.899   .     S
C4063  C4169   1.370   .     A
C4064  Al4084  1.899   .     S
C4064  C4098   1.300   .     S
O4065  C4170   1.300   .     S
O4065  Al4083  1.899   .     S
C4066  C4099   1.370   .     A
C4067  Al4082  1.899   .     S
C4067  C4100   1.300   .     S
O4068  C4100   1.300   .     S
O4068  Al4081  1.899   .     S
C4069  C4165   1.370   .     A
C4069  C607    1.369   1_556 A
C4070  Al4081  1.899   .     S
C4070  C4094   1.300   .     S
O4071  C4166   1.300   .     S
O4071  Al4082  1.899   .     S
C4072  C4095   1.370   .     A
C4072  C4354   1.369   .     A
C4073  Al4083  1.899   .     S
C4073  C4096   1.300   .     S
O4074  C4096   1.300   .     S
O4074  Al4084  1.899   .     S
C4075  C4089   1.370   .     A
C4075  C313    1.369   1_556 A
C4076  Al4082  1.899   .     S
C4076  C4162   1.300   .     S
O4077  C4090   1.300   .     S
O4077  Al4081  1.899   .     S
C4078  C4091   1.370   .     A
C4079  Al4084  1.899   .     S
C4079  C4092   1.300   .     S
O4080  C4092   1.300   .     S
O4080  Al4083  1.899   .     S
Al4081 O4085   1.959   .     S
Al4081 O4088   1.959   .     S
Al4082 O4157   1.959   .     S
Al4082 O4088   1.959   .     S
Al4083 O4159   1.959   .     S
Al4083 O4086   1.959   .     S
Al4084 O4087   1.959   .     S
Al4084 O4086   1.959   .     S
O4085  Al4298  1.959   1_455 S
O4087  Al4299  1.959   1_455 S
C4089  C4249   1.370   1_455 A
C4089  C4090   1.500   .     S
C4090  C4292   1.300   1_455 S
C4090  O4251   1.300   1_455 S
C4091  C4092   1.500   .     S
C4093  C4285   1.370   1_455 A
C4093  C4094   1.500   .     S
C4094  C4256   1.300   1_455 S
C4094  O4287   1.300   1_455 S
C4095  C4096   1.500   .     S
C4097  C4279   1.370   1_455 A
C4097  C4098   1.500   .     S
C4098  C4262   1.300   1_455 S
C4098  O4281   1.300   1_455 S
C4099  C4100   1.500   .     S
C4101  C4267   1.370   1_455 A
C4101  C4102   1.500   .     S
C4102  C4274   1.300   1_455 S
C4102  O4269   1.300   1_455 S
C4103  C4104   1.500   .     S
C4105  C4233   1.370   .     A
C4105  C379    1.369   1_556 A
C4106  Al4153  1.899   .     S
C4106  C4162   1.300   .     S
O4107  C4234   1.300   .     S
O4107  Al4154  1.899   .     S
C4108  C4163   1.370   .     A
C4108  C4126   1.369   .     A
C4109  Al4155  1.899   .     S
C4109  C4164   1.300   .     S
O4110  C4164   1.300   .     S
O4110  Al4156  1.899   .     S
C4111  C4165   1.370   .     A
C4111  C661    1.369   1_556 A
C4112  Al4154  1.899   .     S
C4112  C4238   1.300   .     S
O4113  C4166   1.300   .     S
O4113  Al4153  1.899   .     S
C4114  C4167   1.370   .     A
C4114  C4408   1.369   .     A
C4115  Al4156  1.899   .     S
C4115  C4168   1.300   .     S
O4116  C4168   1.300   .     S
O4116  Al4155  1.899   .     S
C4117  C4169   1.370   .     A
C4118  Al4155  1.899   .     S
C4118  C4242   1.300   .     S
O4119  C4170   1.300   .     S
O4119  Al4156  1.899   .     S
C4120  C4171   1.370   .     A
C4121  Al4153  1.899   .     S
C4121  C4172   1.300   .     S
O4122  C4172   1.300   .     S
O4122  Al4154  1.899   .     S
C4123  C4245   1.370   .     A
C4124  Al4156  1.899   .     S
C4124  C4174   1.300   .     S
O4125  C4246   1.300   .     S
O4125  Al4155  1.899   .     S
C4126  C4175   1.370   .     A
C4127  Al4154  1.899   .     S
C4127  C4176   1.300   .     S
O4128  C4176   1.300   .     S
O4128  Al4153  1.899   .     S
C4129  C4173   1.370   .     A
C4130  Al4155  1.899   .     S
C4130  C4246   1.300   .     S
O4131  C4174   1.300   .     S
O4131  Al4156  1.899   .     S
C4132  C4175   1.370   .     A
C4132  C4150   1.369   .     A
C4133  Al4153  1.899   .     S
C4133  C4176   1.300   .     S
O4134  C4176   1.300   .     S
O4134  Al4154  1.899   .     S
C4135  C4241   1.370   .     A
C4136  Al4156  1.899   .     S
C4136  C4170   1.300   .     S
O4137  C4242   1.300   .     S
O4137  Al4155  1.899   .     S
C4138  C4171   1.370   .     A
C4139  Al4154  1.899   .     S
C4139  C4172   1.300   .     S
O4140  C4172   1.300   .     S
O4140  Al4153  1.899   .     S
C4141  C4237   1.370   .     A
C4141  C679    1.369   1_556 A
C4142  Al4153  1.899   .     S
C4142  C4166   1.300   .     S
O4143  C4238   1.300   .     S
O4143  Al4154  1.899   .     S
C4144  C4167   1.370   .     A
C4144  C4426   1.369   .     A
C4145  Al4155  1.899   .     S
C4145  C4168   1.300   .     S
O4146  C4168   1.300   .     S
O4146  Al4156  1.899   .     S
C4147  C4161   1.370   .     A
C4147  C385    1.369   1_556 A
C4148  Al4154  1.899   .     S
C4148  C4234   1.300   .     S
O4149  C4162   1.300   .     S
O4149  Al4153  1.899   .     S
C4150  C4163   1.370   .     A
C4151  Al4156  1.899   .     S
C4151  C4164   1.300   .     S
O4152  C4164   1.300   .     S
O4152  Al4155  1.899   .     S
Al4153 O4157   1.959   .     S
Al4153 O4160   1.959   .     S
Al4154 O4229   1.959   .     S
Al4154 O4160   1.959   .     S
Al4155 O4231   1.959   .     S
Al4155 O4158   1.959   .     S
Al4156 O4159   1.959   .     S
Al4156 O4158   1.959   .     S
C4161  C4162   1.500   .     S
C4163  C4164   1.500   .     S
C4165  C4166   1.500   .     S
C4167  C4168   1.500   .     S
C4169  C4170   1.500   .     S
C4171  C4172   1.500   .     S
C4173  C4174   1.500   .     S
C4175  C4176   1.500   .     S
C4177  C4305   1.370   .     A
C4177  C451    1.369   1_556 A
C4178  Al4225  1.899   .     S
C4178  C4234   1.300   .     S
O4179  C4306   1.300   .     S
O4179  Al4226  1.899   .     S
C4180  C4235   1.370   .     A
C4180  C4198   1.369   .     A
C4181  Al4227  1.899   .     S
C4181  C4236   1.300   .     S
O4182  C4236   1.300   .     S
O4182  Al4228  1.899   .     S
C4183  C4237   1.370   .     A
C4183  C733    1.369   1_556 A
C4184  Al4226  1.899   .     S
C4184  C4310   1.300   .     S
O4185  C4238   1.300   .     S
O4185  Al4225  1.899   .     S
C4186  C4239   1.370   .     A
C4186  C4480   1.369   .     A
C4187  Al4228  1.899   .     S
C4187  C4240   1.300   .     S
O4188  C4240   1.300   .     S
O4188  Al4227  1.899   .     S
C4189  C4241   1.370   .     A
C4190  Al4227  1.899   .     S
C4190  C4314   1.300   .     S
O4191  C4242   1.300   .     S
O4191  Al4228  1.899   .     S
C4192  C4243   1.370   .     A
C4193  Al4225  1.899   .     S
C4193  C4244   1.300   .     S
O4194  C4244   1.300   .     S
O4194  Al4226  1.899   .     S
C4195  C4317   1.370   .     A
C4196  Al4228  1.899   .     S
C4196  C4246   1.300   .     S
O4197  C4318   1.300   .     S
O4197  Al4227  1.899   .     S
C4198  C4247   1.370   .     A
C4199  Al4226  1.899   .     S
C4199  C4248   1.300   .     S
O4200  C4248   1.300   .     S
O4200  Al4225  1.899   .     S
C4201  C4245   1.370   .     A
C4202  Al4227  1.899   .     S
C4202  C4318   1.300   .     S
O4203  C4246   1.300   .     S
O4203  Al4228  1.899   .     S
C4204  C4247   1.370   .     A
C4204  C4222   1.369   .     A
C4205  Al4225  1.899   .     S
C4205  C4248   1.300   .     S
O4206  C4248   1.300   .     S
O4206  Al4226  1.899   .     S
C4207  C4313   1.370   .     A
C4208  Al4228  1.899   .     S
C4208  C4242   1.300   .     S
O4209  C4314   1.300   .     S
O4209  Al4227  1.899   .     S
C4210  C4243   1.370   .     A
C4211  Al4226  1.899   .     S
C4211  C4244   1.300   .     S
O4212  C4244   1.300   .     S
O4212  Al4225  1.899   .     S
C4213  C4309   1.370   .     A
C4213  C751    1.369   1_556 A
C4214  Al4225  1.899   .     S
C4214  C4238   1.300   .     S
O4215  C4310   1.300   .     S
O4215  Al4226  1.899   .     S
C4216  C4239   1.370   .     A
C4216  C4498   1.369   .     A
C4217  Al4227  1.899   .     S
C4217  C4240   1.300   .     S
O4218  C4240   1.300   .     S
O4218  Al4228  1.899   .     S
C4219  C4233   1.370   .     A
C4219  C457    1.369   1_556 A
C4220  Al4226  1.899   .     S
C4220  C4306   1.300   .     S
O4221  C4234   1.300   .     S
O4221  Al4225  1.899   .     S
C4222  C4235   1.370   .     A
C4223  Al4228  1.899   .     S
C4223  C4236   1.300   .     S
O4224  C4236   1.300   .     S
O4224  Al4227  1.899   .     S
Al4225 O4229   1.959   .     S
Al4225 O4232   1.959   .     S
Al4226 O4301   1.959   .     S
Al4226 O4232   1.959   .     S
Al4227 O4303   1.959   .     S
Al4227 O4230   1.959   .     S
Al4228 O4231   1.959   .     S
Al4228 O4230   1.959   .     S
C4233  C4234   1.500   .     S
C4235  C4236   1.500   .     S
C4237  C4238   1.500   .     S
C4239  C4240   1.500   .     S
C4241  C4242   1.500   .     S
C4243  C4244   1.500   .     S
C4245  C4246   1.500   .     S
C4247  C4248   1.500   .     S
C4249  C4089   1.370   1_655 A
C4249  C523    1.369   1_556 A
C4250  Al4297  1.899   .     S
C4250  C4306   1.300   .     S
O4251  C4090   1.300   1_655 S
O4251  Al4298  1.899   .     S
C4252  C4307   1.370   .     A
C4252  C4270   1.369   .     A
C4253  Al4299  1.899   .     S
C4253  C4308   1.300   .     S
O4254  C4308   1.300   .     S
O4254  Al4300  1.899   .     S
C4255  C4309   1.370   .     A
C4255  C805    1.369   1_556 A
C4256  Al4298  1.899   .     S
C4256  C4094   1.300   1_655 S
O4257  C4310   1.300   .     S
O4257  Al4297  1.899   .     S
C4258  C4311   1.370   .     A
C4258  C4552   1.369   .     A
C4259  Al4300  1.899   .     S
C4259  C4312   1.300   .     S
O4260  C4312   1.300   .     S
O4260  Al4299  1.899   .     S
C4261  C4313   1.370   .     A
C4262  Al4299  1.899   .     S
C4262  C4098   1.300   1_655 S
O4263  C4314   1.300   .     S
O4263  Al4300  1.899   .     S
C4264  C4315   1.370   .     A
C4265  Al4297  1.899   .     S
C4265  C4316   1.300   .     S
O4266  C4316   1.300   .     S
O4266  Al4298  1.899   .     S
C4267  C4101   1.370   1_655 A
C4268  Al4300  1.899   .     S
C4268  C4318   1.300   .     S
O4269  C4102   1.300   1_655 S
O4269  Al4299  1.899   .     S
C4270  C4319   1.370   .     A
C4271  Al4298  1.899   .     S
C4271  C4320   1.300   .     S
O4272  C4320   1.300   .     S
O4272  Al4297  1.899   .     S
C4273  C4317   1.370   .     A
C4274  Al4299  1.899   .     S
C4274  C4102   1.300   1_655 S
O4275  C4318   1.300   .     S
O4275  Al4300  1.899   .     S
C4276  C4319   1.370   .     A
C4276  C4294   1.369   .     A
C4277  Al4297  1.899   .     S
C4277  C4320   1.300   .     S
O4278  C4320   1.300   .     S
O4278  Al4298  1.899   .     S
C4279  C4097   1.370   1_655 A
C4280  Al4300  1.899   .     S
C4280  C4314   1.300   .     S
O4281  C4098   1.300   1_655 S
O4281  Al4299  1.899   .     S
C4282  C4315   1.370   .     A
C4283  Al4298  1.899   .     S
C4283  C4316   1.300   .     S
O4284  C4316   1.300   .     S
O4284  Al4297  1.899   .     S
C4285  C4093   1.370   1_655 A
C4285  C823    1.369   1_556 A
C4286  Al4297  1.899   .     S
C4286  C4310   1.300   .     S
O4287  C4094   1.300   1_655 S
O4287  Al4298  1.899   .     S
C4288  C4311   1.370   .     A
C4288  C4570   1.369   .     A
C4289  Al4299  1.899   .     S
C4289  C4312   1.300   .     S
O4290  C4312   1.300   .     S
O4290  Al4300  1.899   .     S
C4291  C4305   1.370   .     A
C4291  C529    1.369   1_556 A
C4292  Al4298  1.899   .     S
C4292  C4090   1.300   1_655 S
O4293  C4306   1.300   .     S
O4293  Al4297  1.899   .     S
C4294  C4307   1.370   .     A
C4295  Al4300  1.899   .     S
C4295  C4308   1.300   .     S
O4296  C4308   1.300   .     S
O4296  Al4299  1.899   .     S
Al4297 O4301   1.959   .     S
Al4297 O4304   1.959   .     S
Al4298 O4085   1.959   1_655 S
Al4298 O4304   1.959   .     S
Al4299 O4087   1.959   1_655 S
Al4299 O4302   1.959   .     S
Al4300 O4303   1.959   .     S
Al4300 O4302   1.959   .     S
C4305  C4306   1.500   .     S
C4307  C4308   1.500   .     S
C4309  C4310   1.500   .     S
C4311  C4312   1.500   .     S
C4313  C4314   1.500   .     S
C4315  C4316   1.500   .     S
C4317  C4318   1.500   .     S
C4319  C4320   1.500   .     S
C4321  C4449   1.370   .     A
C4321  C595    1.369   1_556 A
C4322  Al4369  1.899   .     S
C4322  C4378   1.300   .     S
O4323  C4450   1.300   .     S
O4323  Al4370  1.899   .     S
C4324  C4379   1.370   .     A
C4324  C4342   1.369   .     A
C4325  Al4371  1.899   .     S
C4325  C4380   1.300   .     S
O4326  C4380   1.300   .     S
O4326  Al4372  1.899   .     S
C4327  C4381   1.370   .     A
C4327  C877    1.369   1_556 A
C4328  Al4370  1.899   .     S
C4328  C4454   1.300   .     S
O4329  C4382   1.300   .     S
O4329  Al4369  1.899   .     S
C4330  C4383   1.370   .     A
C4330  C3472   1.369   1_565 A
C4331  Al4372  1.899   .     S
C4331  C4384   1.300   .     S
O4332  C4384   1.300   .     S
O4332  Al4371  1.899   .     S
C4333  C4385   1.370   .     A
C4334  Al4371  1.899   .     S
C4334  C4458   1.300   .     S
O4335  C4386   1.300   .     S
O4335  Al4372  1.899   .     S
C4336  C4387   1.370   .     A
C4337  Al4369  1.899   .     S
C4337  C4388   1.300   .     S
O4338  C4388   1.300   .     S
O4338  Al4370  1.899   .     S
C4339  C4461   1.370   .     A
C4339  C2305   1.369   1_565 A
C4340  Al4372  1.899   .     S
C4340  C4390   1.300   .     S
O4341  C4462   1.300   .     S
O4341  Al4371  1.899   .     S
C4342  C4391   1.370   .     A
C4343  Al4370  1.899   .     S
C4343  C4392   1.300   .     S
O4344  C4392   1.300   .     S
O4344  Al4369  1.899   .     S
C4345  C4389   1.370   .     A
C4345  C2347   1.369   1_565 A
C4346  Al4371  1.899   .     S
C4346  C4462   1.300   .     S
O4347  C4390   1.300   .     S
O4347  Al4372  1.899   .     S
C4348  C4391   1.370   .     A
C4348  C4366   1.369   .     A
C4349  Al4369  1.899   .     S
C4349  C4392   1.300   .     S
O4350  C4392   1.300   .     S
O4350  Al4370  1.899   .     S
C4351  C4457   1.370   .     A
C4352  Al4372  1.899   .     S
C4352  C4386   1.300   .     S
O4353  C4458   1.300   .     S
O4353  Al4371  1.899   .     S
C4354  C4387   1.370   .     A
C4355  Al4370  1.899   .     S
C4355  C4388   1.300   .     S
O4356  C4388   1.300   .     S
O4356  Al4369  1.899   .     S
C4357  C4453   1.370   .     A
C4357  C895    1.369   1_556 A
C4358  Al4369  1.899   .     S
C4358  C4382   1.300   .     S
O4359  C4454   1.300   .     S
O4359  Al4370  1.899   .     S
C4360  C4383   1.370   .     A
C4360  C3490   1.369   1_565 A
C4361  Al4371  1.899   .     S
C4361  C4384   1.300   .     S
O4362  C4384   1.300   .     S
O4362  Al4372  1.899   .     S
C4363  C4377   1.370   .     A
C4363  C601    1.369   1_556 A
C4364  Al4370  1.899   .     S
C4364  C4450   1.300   .     S
O4365  C4378   1.300   .     S
O4365  Al4369  1.899   .     S
C4366  C4379   1.370   .     A
C4367  Al4372  1.899   .     S
C4367  C4380   1.300   .     S
O4368  C4380   1.300   .     S
O4368  Al4371  1.899   .     S
Al4369 O4373   1.959   .     S
Al4369 O4376   1.959   .     S
Al4370 O4445   1.959   .     S
Al4370 O4376   1.959   .     S
Al4371 O4447   1.959   .     S
Al4371 O4374   1.959   .     S
Al4372 O4375   1.959   .     S
Al4372 O4374   1.959   .     S
O4373  Al4586  1.959   1_455 S
O4375  Al4587  1.959   1_455 S
C4377  C4537   1.370   1_455 A
C4377  C4378   1.500   .     S
C4378  C4580   1.300   1_455 S
C4378  O4539   1.300   1_455 S
C4379  C4380   1.500   .     S
C4381  C4573   1.370   1_455 A
C4381  C4382   1.500   .     S
C4382  C4544   1.300   1_455 S
C4382  O4575   1.300   1_455 S
C4383  C4384   1.500   .     S
C4385  C4567   1.370   1_455 A
C4385  C4386   1.500   .     S
C4386  C4550   1.300   1_455 S
C4386  O4569   1.300   1_455 S
C4387  C4388   1.500   .     S
C4389  C4555   1.370   1_455 A
C4389  C4390   1.500   .     S
C4390  C4562   1.300   1_455 S
C4390  O4557   1.300   1_455 S
C4391  C4392   1.500   .     S
C4393  C4521   1.370   .     A
C4393  C667    1.369   1_556 A
C4394  Al4441  1.899   .     S
C4394  C4450   1.300   .     S
O4395  C4522   1.300   .     S
O4395  Al4442  1.899   .     S
C4396  C4451   1.370   .     A
C4396  C4414   1.369   .     A
C4397  Al4443  1.899   .     S
C4397  C4452   1.300   .     S
O4398  C4452   1.300   .     S
O4398  Al4444  1.899   .     S
C4399  C4453   1.370   .     A
C4399  C949    1.369   1_556 A
C4400  Al4442  1.899   .     S
C4400  C4526   1.300   .     S
O4401  C4454   1.300   .     S
O4401  Al4441  1.899   .     S
C4402  C4455   1.370   .     A
C4402  C3544   1.369   1_565 A
C4403  Al4444  1.899   .     S
C4403  C4456   1.300   .     S
O4404  C4456   1.300   .     S
O4404  Al4443  1.899   .     S
C4405  C4457   1.370   .     A
C4406  Al4443  1.899   .     S
C4406  C4530   1.300   .     S
O4407  C4458   1.300   .     S
O4407  Al4444  1.899   .     S
C4408  C4459   1.370   .     A
C4409  Al4441  1.899   .     S
C4409  C4460   1.300   .     S
O4410  C4460   1.300   .     S
O4410  Al4442  1.899   .     S
C4411  C4533   1.370   .     A
C4411  C2377   1.369   1_565 A
C4412  Al4444  1.899   .     S
C4412  C4462   1.300   .     S
O4413  C4534   1.300   .     S
O4413  Al4443  1.899   .     S
C4414  C4463   1.370   .     A
C4415  Al4442  1.899   .     S
C4415  C4464   1.300   .     S
O4416  C4464   1.300   .     S
O4416  Al4441  1.899   .     S
C4417  C4461   1.370   .     A
C4417  C2419   1.369   1_565 A
C4418  Al4443  1.899   .     S
C4418  C4534   1.300   .     S
O4419  C4462   1.300   .     S
O4419  Al4444  1.899   .     S
C4420  C4463   1.370   .     A
C4420  C4438   1.369   .     A
C4421  Al4441  1.899   .     S
C4421  C4464   1.300   .     S
O4422  C4464   1.300   .     S
O4422  Al4442  1.899   .     S
C4423  C4529   1.370   .     A
C4424  Al4444  1.899   .     S
C4424  C4458   1.300   .     S
O4425  C4530   1.300   .     S
O4425  Al4443  1.899   .     S
C4426  C4459   1.370   .     A
C4427  Al4442  1.899   .     S
C4427  C4460   1.300   .     S
O4428  C4460   1.300   .     S
O4428  Al4441  1.899   .     S
C4429  C4525   1.370   .     A
C4429  C967    1.369   1_556 A
C4430  Al4441  1.899   .     S
C4430  C4454   1.300   .     S
O4431  C4526   1.300   .     S
O4431  Al4442  1.899   .     S
C4432  C4455   1.370   .     A
C4432  C3562   1.369   1_565 A
C4433  Al4443  1.899   .     S
C4433  C4456   1.300   .     S
O4434  C4456   1.300   .     S
O4434  Al4444  1.899   .     S
C4435  C4449   1.370   .     A
C4435  C673    1.369   1_556 A
C4436  Al4442  1.899   .     S
C4436  C4522   1.300   .     S
O4437  C4450   1.300   .     S
O4437  Al4441  1.899   .     S
C4438  C4451   1.370   .     A
C4439  Al4444  1.899   .     S
C4439  C4452   1.300   .     S
O4440  C4452   1.300   .     S
O4440  Al4443  1.899   .     S
Al4441 O4445   1.959   .     S
Al4441 O4448   1.959   .     S
Al4442 O4517   1.959   .     S
Al4442 O4448   1.959   .     S
Al4443 O4519   1.959   .     S
Al4443 O4446   1.959   .     S
Al4444 O4447   1.959   .     S
Al4444 O4446   1.959   .     S
C4449  C4450   1.500   .     S
C4451  C4452   1.500   .     S
C4453  C4454   1.500   .     S
C4455  C4456   1.500   .     S
C4457  C4458   1.500   .     S
C4459  C4460   1.500   .     S
C4461  C4462   1.500   .     S
C4463  C4464   1.500   .     S
C4465  C4593   1.370   .     A
C4465  C739    1.369   1_556 A
C4466  Al4513  1.899   .     S
C4466  C4522   1.300   .     S
O4467  C4594   1.300   .     S
O4467  Al4514  1.899   .     S
C4468  C4523   1.370   .     A
C4468  C4486   1.369   .     A
C4469  Al4515  1.899   .     S
C4469  C4524   1.300   .     S
O4470  C4524   1.300   .     S
O4470  Al4516  1.899   .     S
C4471  C4525   1.370   .     A
C4471  C1021   1.369   1_556 A
C4472  Al4514  1.899   .     S
C4472  C4598   1.300   .     S
O4473  C4526   1.300   .     S
O4473  Al4513  1.899   .     S
C4474  C4527   1.370   .     A
C4474  C3616   1.369   1_565 A
C4475  Al4516  1.899   .     S
C4475  C4528   1.300   .     S
O4476  C4528   1.300   .     S
O4476  Al4515  1.899   .     S
C4477  C4529   1.370   .     A
C4478  Al4515  1.899   .     S
C4478  C4602   1.300   .     S
O4479  C4530   1.300   .     S
O4479  Al4516  1.899   .     S
C4480  C4531   1.370   .     A
C4481  Al4513  1.899   .     S
C4481  C4532   1.300   .     S
O4482  C4532   1.300   .     S
O4482  Al4514  1.899   .     S
C4483  C4605   1.370   .     A
C4483  C2449   1.369   1_565 A
C4484  Al4516  1.899   .     S
C4484  C4534   1.300   .     S
O4485  C4606   1.300   .     S
O4485  Al4515  1.899   .     S
C4486  C4535   1.370   .     A
C4487  Al4514  1.899   .     S
C4487  C4536   1.300   .     S
O4488  C4536   1.300   .     S
O4488  Al4513  1.899   .     S
C4489  C4533   1.370   .     A
C4489  C2491   1.369   1_565 A
C4490  Al4515  1.899   .     S
C4490  C4606   1.300   .     S
O4491  C4534   1.300   .     S
O4491  Al4516  1.899   .     S
C4492  C4535   1.370   .     A
C4492  C4510   1.369   .     A
C4493  Al4513  1.899   .     S
C4493  C4536   1.300   .     S
O4494  C4536   1.300   .     S
O4494  Al4514  1.899   .     S
C4495  C4601   1.370   .     A
C4496  Al4516  1.899   .     S
C4496  C4530   1.300   .     S
O4497  C4602   1.300   .     S
O4497  Al4515  1.899   .     S
C4498  C4531   1.370   .     A
C4499  Al4514  1.899   .     S
C4499  C4532   1.300   .     S
O4500  C4532   1.300   .     S
O4500  Al4513  1.899   .     S
C4501  C4597   1.370   .     A
C4501  C1039   1.369   1_556 A
C4502  Al4513  1.899   .     S
C4502  C4526   1.300   .     S
O4503  C4598   1.300   .     S
O4503  Al4514  1.899   .     S
C4504  C4527   1.370   .     A
C4504  C3634   1.369   1_565 A
C4505  Al4515  1.899   .     S
C4505  C4528   1.300   .     S
O4506  C4528   1.300   .     S
O4506  Al4516  1.899   .     S
C4507  C4521   1.370   .     A
C4507  C745    1.369   1_556 A
C4508  Al4514  1.899   .     S
C4508  C4594   1.300   .     S
O4509  C4522   1.300   .     S
O4509  Al4513  1.899   .     S
C4510  C4523   1.370   .     A
C4511  Al4516  1.899   .     S
C4511  C4524   1.300   .     S
O4512  C4524   1.300   .     S
O4512  Al4515  1.899   .     S
Al4513 O4517   1.959   .     S
Al4513 O4520   1.959   .     S
Al4514 O4589   1.959   .     S
Al4514 O4520   1.959   .     S
Al4515 O4591   1.959   .     S
Al4515 O4518   1.959   .     S
Al4516 O4519   1.959   .     S
Al4516 O4518   1.959   .     S
C4521  C4522   1.500   .     S
C4523  C4524   1.500   .     S
C4525  C4526   1.500   .     S
C4527  C4528   1.500   .     S
C4529  C4530   1.500   .     S
C4531  C4532   1.500   .     S
C4533  C4534   1.500   .     S
C4535  C4536   1.500   .     S
C4537  C4377   1.370   1_655 A
C4537  C811    1.369   1_556 A
C4538  Al4585  1.899   .     S
C4538  C4594   1.300   .     S
O4539  C4378   1.300   1_655 S
O4539  Al4586  1.899   .     S
C4540  C4595   1.370   .     A
C4540  C4558   1.369   .     A
C4541  Al4587  1.899   .     S
C4541  C4596   1.300   .     S
O4542  C4596   1.300   .     S
O4542  Al4588  1.899   .     S
C4543  C4597   1.370   .     A
C4543  C1093   1.369   1_556 A
C4544  Al4586  1.899   .     S
C4544  C4382   1.300   1_655 S
O4545  C4598   1.300   .     S
O4545  Al4585  1.899   .     S
C4546  C4599   1.370   .     A
C4546  C3688   1.369   1_565 A
C4547  Al4588  1.899   .     S
C4547  C4600   1.300   .     S
O4548  C4600   1.300   .     S
O4548  Al4587  1.899   .     S
C4549  C4601   1.370   .     A
C4550  Al4587  1.899   .     S
C4550  C4386   1.300   1_655 S
O4551  C4602   1.300   .     S
O4551  Al4588  1.899   .     S
C4552  C4603   1.370   .     A
C4553  Al4585  1.899   .     S
C4553  C4604   1.300   .     S
O4554  C4604   1.300   .     S
O4554  Al4586  1.899   .     S
C4555  C4389   1.370   1_655 A
C4555  C2521   1.369   1_565 A
C4556  Al4588  1.899   .     S
C4556  C4606   1.300   .     S
O4557  C4390   1.300   1_655 S
O4557  Al4587  1.899   .     S
C4558  C4607   1.370   .     A
C4559  Al4586  1.899   .     S
C4559  C4608   1.300   .     S
O4560  C4608   1.300   .     S
O4560  Al4585  1.899   .     S
C4561  C4605   1.370   .     A
C4561  C2563   1.369   1_565 A
C4562  Al4587  1.899   .     S
C4562  C4390   1.300   1_655 S
O4563  C4606   1.300   .     S
O4563  Al4588  1.899   .     S
C4564  C4607   1.370   .     A
C4564  C4582   1.369   .     A
C4565  Al4585  1.899   .     S
C4565  C4608   1.300   .     S
O4566  C4608   1.300   .     S
O4566  Al4586  1.899   .     S
C4567  C4385   1.370   1_655 A
C4568  Al4588  1.899   .     S
C4568  C4602   1.300   .     S
O4569  C4386   1.300   1_655 S
O4569  Al4587  1.899   .     S
C4570  C4603   1.370   .     A
C4571  Al4586  1.899   .     S
C4571  C4604   1.300   .     S
O4572  C4604   1.300   .     S
O4572  Al4585  1.899   .     S
C4573  C4381   1.370   1_655 A
C4573  C1111   1.369   1_556 A
C4574  Al4585  1.899   .     S
C4574  C4598   1.300   .     S
O4575  C4382   1.300   1_655 S
O4575  Al4586  1.899   .     S
C4576  C4599   1.370   .     A
C4576  C3706   1.369   1_565 A
C4577  Al4587  1.899   .     S
C4577  C4600   1.300   .     S
O4578  C4600   1.300   .     S
O4578  Al4588  1.899   .     S
C4579  C4593   1.370   .     A
C4579  C817    1.369   1_556 A
C4580  Al4586  1.899   .     S
C4580  C4378   1.300   1_655 S
O4581  C4594   1.300   .     S
O4581  Al4585  1.899   .     S
C4582  C4595   1.370   .     A
C4583  Al4588  1.899   .     S
C4583  C4596   1.300   .     S
O4584  C4596   1.300   .     S
O4584  Al4587  1.899   .     S
Al4585 O4589   1.959   .     S
Al4585 O4592   1.959   .     S
Al4586 O4373   1.959   1_655 S
Al4586 O4592   1.959   .     S
Al4587 O4375   1.959   1_655 S
Al4587 O4590   1.959   .     S
Al4588 O4591   1.959   .     S
Al4588 O4590   1.959   .     S
C4593  C4594   1.500   .     S
C4595  C4596   1.500   .     S
C4597  C4598   1.500   .     S
C4599  C4600   1.500   .     S
C4601  C4602   1.500   .     S
C4603  C4604   1.500   .     S
C4605  C4606   1.500   .     S
C4607  C4608   1.500   .     S
