data_Fe(bdp)_expanded_4-4-4
_audit_creation_date              2020-05-22
_audit_creation_method            'Materials Studio'
_symmetry_space_group_name_H-M    'P1'
_symmetry_Int_Tables_number       1
_symmetry_cell_setting            triclinic
loop_
_symmetry_equiv_pos_as_xyz
  x,y,z
_cell_length_a                    53.6400
_cell_length_b                    53.6400
_cell_length_c                    28.8000
_cell_angle_alpha                 90.0000
_cell_angle_beta                  90.0000
_cell_angle_gamma                 90.0000
loop_
_atom_site_label
_atom_site_type_symbol
_atom_site_fract_x
_atom_site_fract_y
_atom_site_fract_z
_atom_site_U_iso_or_equiv
_atom_site_adp_type
_atom_site_occupancy
Fe1    Fe    0.00000   0.00000   0.06250   0.06333  Uiso   1.00
Fe2    Fe    0.00000   0.00000   0.18750   0.06333  Uiso   1.00
C3     C     0.00000   0.05715   0.21180   0.06333  Uiso   1.00
C4     C     0.00000   0.11204   0.20820   0.06333  Uiso   1.00
N5     N     0.00000   0.03304   0.22639   0.06333  Uiso   1.00
H6     H     0.00000   0.06262   0.18042   0.06333  Uiso   1.00
H7     H     0.00000   0.10319   0.17964   0.06333  Uiso   1.00
C8     C     0.00000   0.19285   0.21180   0.06333  Uiso   1.00
C9     C     0.00000   0.13796   0.20820   0.06333  Uiso   1.00
N10    N     0.00000   0.21696   0.22639   0.06333  Uiso   1.00
H11    H     0.00000   0.18738   0.18042   0.06333  Uiso   1.00
H12    H     0.00000   0.14681   0.17964   0.06333  Uiso   1.00
C13    C     0.19285   0.00000   0.08680   0.06333  Uiso   1.00
C14    C     0.13796   0.00000   0.08320   0.06333  Uiso   1.00
N15    N     0.21696   0.00000   0.10139   0.06333  Uiso   1.00
H16    H     0.18738   0.00000   0.05542   0.06333  Uiso   1.00
H17    H     0.14681   0.00000   0.05464   0.06333  Uiso   1.00
C18    C     0.05715   0.00000   0.08680   0.06333  Uiso   1.00
C19    C     0.11204   0.00000   0.08320   0.06333  Uiso   1.00
N20    N     0.03304   0.00000   0.10139   0.06333  Uiso   1.00
H21    H     0.06262   0.00000   0.05542   0.06333  Uiso   1.00
H22    H     0.10319   0.00000   0.05464   0.06333  Uiso   1.00
C23    C     0.00000   0.05715   0.03820   0.06333  Uiso   1.00
C24    C     0.00000   0.11204   0.04180   0.06333  Uiso   1.00
N25    N     0.00000   0.03304   0.02361   0.06333  Uiso   1.00
H26    H     0.00000   0.06262   0.06958   0.06333  Uiso   1.00
H27    H     0.00000   0.10319   0.07036   0.06333  Uiso   1.00
C28    C     0.00000   0.19285   0.03820   0.06333  Uiso   1.00
C29    C     0.00000   0.13796   0.04180   0.06333  Uiso   1.00
N30    N     0.00000   0.21696   0.02361   0.06333  Uiso   1.00
H31    H     0.00000   0.18738   0.06958   0.06333  Uiso   1.00
H32    H     0.00000   0.14681   0.07036   0.06333  Uiso   1.00
C33    C     0.05715   0.00000   0.16320   0.06333  Uiso   1.00
C34    C     0.11204   0.00000   0.16680   0.06333  Uiso   1.00
N35    N     0.03304   0.00000   0.14861   0.06333  Uiso   1.00
H36    H     0.06262   0.00000   0.19458   0.06333  Uiso   1.00
H37    H     0.10319   0.00000   0.19536   0.06333  Uiso   1.00
C38    C     0.19285   0.00000   0.16320   0.06333  Uiso   1.00
C39    C     0.13796   0.00000   0.16680   0.06333  Uiso   1.00
N40    N     0.21696   0.00000   0.14861   0.06333  Uiso   1.00
H41    H     0.18738   0.00000   0.19458   0.06333  Uiso   1.00
H42    H     0.14681   0.00000   0.19536   0.06333  Uiso   1.00
C43    C     0.00000   0.07205   0.00000   0.06333  Uiso   1.00
C44    C     0.00000   0.09909   0.00000   0.06333  Uiso   1.00
C45    C     0.00000   0.17795   0.00000   0.06333  Uiso   1.00
C46    C     0.00000   0.15091   0.00000   0.06333  Uiso   1.00
C47    C     0.17795   0.00000   0.12500   0.06333  Uiso   1.00
C48    C     0.15091   0.00000   0.12500   0.06333  Uiso   1.00
C49    C     0.07205   0.00000   0.12500   0.06333  Uiso   1.00
C50    C     0.09909   0.00000   0.12500   0.06333  Uiso   1.00
Fe51   Fe    0.25000   0.00000   0.06250   0.06333  Uiso   1.00
Fe52   Fe    0.25000   0.00000   0.18750   0.06333  Uiso   1.00
C53    C     0.25000   0.05715   0.21180   0.06333  Uiso   1.00
C54    C     0.25000   0.11204   0.20820   0.06333  Uiso   1.00
N55    N     0.25000   0.03304   0.22639   0.06333  Uiso   1.00
H56    H     0.25000   0.06262   0.18042   0.06333  Uiso   1.00
H57    H     0.25000   0.10319   0.17964   0.06333  Uiso   1.00
C58    C     0.25000   0.19285   0.21180   0.06333  Uiso   1.00
C59    C     0.25000   0.13796   0.20820   0.06333  Uiso   1.00
N60    N     0.25000   0.21696   0.22639   0.06333  Uiso   1.00
H61    H     0.25000   0.18738   0.18042   0.06333  Uiso   1.00
H62    H     0.25000   0.14681   0.17964   0.06333  Uiso   1.00
C63    C     0.44285   0.00000   0.08680   0.06333  Uiso   1.00
C64    C     0.38796   0.00000   0.08320   0.06333  Uiso   1.00
N65    N     0.46696   0.00000   0.10139   0.06333  Uiso   1.00
H66    H     0.43738   0.00000   0.05542   0.06333  Uiso   1.00
H67    H     0.39681   0.00000   0.05464   0.06333  Uiso   1.00
C68    C     0.30715   0.00000   0.08680   0.06333  Uiso   1.00
C69    C     0.36204   0.00000   0.08320   0.06333  Uiso   1.00
N70    N     0.28304   0.00000   0.10139   0.06333  Uiso   1.00
H71    H     0.31262   0.00000   0.05542   0.06333  Uiso   1.00
H72    H     0.35319   0.00000   0.05464   0.06333  Uiso   1.00
C73    C     0.25000   0.05715   0.03820   0.06333  Uiso   1.00
C74    C     0.25000   0.11204   0.04180   0.06333  Uiso   1.00
N75    N     0.25000   0.03304   0.02361   0.06333  Uiso   1.00
H76    H     0.25000   0.06262   0.06958   0.06333  Uiso   1.00
H77    H     0.25000   0.10319   0.07036   0.06333  Uiso   1.00
C78    C     0.25000   0.19285   0.03820   0.06333  Uiso   1.00
C79    C     0.25000   0.13796   0.04180   0.06333  Uiso   1.00
N80    N     0.25000   0.21696   0.02361   0.06333  Uiso   1.00
H81    H     0.25000   0.18738   0.06958   0.06333  Uiso   1.00
H82    H     0.25000   0.14681   0.07036   0.06333  Uiso   1.00
C83    C     0.30715   0.00000   0.16320   0.06333  Uiso   1.00
C84    C     0.36204   0.00000   0.16680   0.06333  Uiso   1.00
N85    N     0.28304   0.00000   0.14861   0.06333  Uiso   1.00
H86    H     0.31262   0.00000   0.19458   0.06333  Uiso   1.00
H87    H     0.35319   0.00000   0.19536   0.06333  Uiso   1.00
C88    C     0.44285   0.00000   0.16320   0.06333  Uiso   1.00
C89    C     0.38796   0.00000   0.16680   0.06333  Uiso   1.00
N90    N     0.46696   0.00000   0.14861   0.06333  Uiso   1.00
H91    H     0.43738   0.00000   0.19458   0.06333  Uiso   1.00
H92    H     0.39681   0.00000   0.19536   0.06333  Uiso   1.00
C93    C     0.25000   0.07205   0.00000   0.06333  Uiso   1.00
C94    C     0.25000   0.09909   0.00000   0.06333  Uiso   1.00
C95    C     0.25000   0.17795   0.00000   0.06333  Uiso   1.00
C96    C     0.25000   0.15091   0.00000   0.06333  Uiso   1.00
C97    C     0.42795   0.00000   0.12500   0.06333  Uiso   1.00
C98    C     0.40091   0.00000   0.12500   0.06333  Uiso   1.00
C99    C     0.32205   0.00000   0.12500   0.06333  Uiso   1.00
C100   C     0.34909   0.00000   0.12500   0.06333  Uiso   1.00
Fe101  Fe    0.50000   0.00000   0.06250   0.06333  Uiso   1.00
Fe102  Fe    0.50000   0.00000   0.18750   0.06333  Uiso   1.00
C103   C     0.50000   0.05715   0.21180   0.06333  Uiso   1.00
C104   C     0.50000   0.11204   0.20820   0.06333  Uiso   1.00
N105   N     0.50000   0.03304   0.22639   0.06333  Uiso   1.00
H106   H     0.50000   0.06262   0.18042   0.06333  Uiso   1.00
H107   H     0.50000   0.10319   0.17964   0.06333  Uiso   1.00
C108   C     0.50000   0.19285   0.21180   0.06333  Uiso   1.00
C109   C     0.50000   0.13796   0.20820   0.06333  Uiso   1.00
N110   N     0.50000   0.21696   0.22639   0.06333  Uiso   1.00
H111   H     0.50000   0.18738   0.18042   0.06333  Uiso   1.00
H112   H     0.50000   0.14681   0.17964   0.06333  Uiso   1.00
C113   C     0.69285   0.00000   0.08680   0.06333  Uiso   1.00
C114   C     0.63796   0.00000   0.08320   0.06333  Uiso   1.00
N115   N     0.71696   0.00000   0.10139   0.06333  Uiso   1.00
H116   H     0.68738   0.00000   0.05542   0.06333  Uiso   1.00
H117   H     0.64681   0.00000   0.05464   0.06333  Uiso   1.00
C118   C     0.55715   0.00000   0.08680   0.06333  Uiso   1.00
C119   C     0.61204   0.00000   0.08320   0.06333  Uiso   1.00
N120   N     0.53304   0.00000   0.10139   0.06333  Uiso   1.00
H121   H     0.56262   0.00000   0.05542   0.06333  Uiso   1.00
H122   H     0.60319   0.00000   0.05464   0.06333  Uiso   1.00
C123   C     0.50000   0.05715   0.03820   0.06333  Uiso   1.00
C124   C     0.50000   0.11204   0.04180   0.06333  Uiso   1.00
N125   N     0.50000   0.03304   0.02361   0.06333  Uiso   1.00
H126   H     0.50000   0.06262   0.06958   0.06333  Uiso   1.00
H127   H     0.50000   0.10319   0.07036   0.06333  Uiso   1.00
C128   C     0.50000   0.19285   0.03820   0.06333  Uiso   1.00
C129   C     0.50000   0.13796   0.04180   0.06333  Uiso   1.00
N130   N     0.50000   0.21696   0.02361   0.06333  Uiso   1.00
H131   H     0.50000   0.18738   0.06958   0.06333  Uiso   1.00
H132   H     0.50000   0.14681   0.07036   0.06333  Uiso   1.00
C133   C     0.55715   0.00000   0.16320   0.06333  Uiso   1.00
C134   C     0.61204   0.00000   0.16680   0.06333  Uiso   1.00
N135   N     0.53304   0.00000   0.14861   0.06333  Uiso   1.00
H136   H     0.56262   0.00000   0.19458   0.06333  Uiso   1.00
H137   H     0.60319   0.00000   0.19536   0.06333  Uiso   1.00
C138   C     0.69285   0.00000   0.16320   0.06333  Uiso   1.00
C139   C     0.63796   0.00000   0.16680   0.06333  Uiso   1.00
N140   N     0.71696   0.00000   0.14861   0.06333  Uiso   1.00
H141   H     0.68738   0.00000   0.19458   0.06333  Uiso   1.00
H142   H     0.64681   0.00000   0.19536   0.06333  Uiso   1.00
C143   C     0.50000   0.07205   0.00000   0.06333  Uiso   1.00
C144   C     0.50000   0.09909   0.00000   0.06333  Uiso   1.00
C145   C     0.50000   0.17795   0.00000   0.06333  Uiso   1.00
C146   C     0.50000   0.15091   0.00000   0.06333  Uiso   1.00
C147   C     0.67795   0.00000   0.12500   0.06333  Uiso   1.00
C148   C     0.65091   0.00000   0.12500   0.06333  Uiso   1.00
C149   C     0.57205   0.00000   0.12500   0.06333  Uiso   1.00
C150   C     0.59909   0.00000   0.12500   0.06333  Uiso   1.00
Fe151  Fe    0.75000   0.00000   0.06250   0.06333  Uiso   1.00
Fe152  Fe    0.75000   0.00000   0.18750   0.06333  Uiso   1.00
C153   C     0.75000   0.05715   0.21180   0.06333  Uiso   1.00
C154   C     0.75000   0.11204   0.20820   0.06333  Uiso   1.00
N155   N     0.75000   0.03304   0.22639   0.06333  Uiso   1.00
H156   H     0.75000   0.06262   0.18042   0.06333  Uiso   1.00
H157   H     0.75000   0.10319   0.17964   0.06333  Uiso   1.00
C158   C     0.75000   0.19285   0.21180   0.06333  Uiso   1.00
C159   C     0.75000   0.13796   0.20820   0.06333  Uiso   1.00
N160   N     0.75000   0.21696   0.22639   0.06333  Uiso   1.00
H161   H     0.75000   0.18738   0.18042   0.06333  Uiso   1.00
H162   H     0.75000   0.14681   0.17964   0.06333  Uiso   1.00
C163   C     0.94285   0.00000   0.08680   0.06333  Uiso   1.00
C164   C     0.88796   0.00000   0.08320   0.06333  Uiso   1.00
N165   N     0.96696   0.00000   0.10139   0.06333  Uiso   1.00
H166   H     0.93738   0.00000   0.05542   0.06333  Uiso   1.00
H167   H     0.89681   0.00000   0.05464   0.06333  Uiso   1.00
C168   C     0.80715   0.00000   0.08680   0.06333  Uiso   1.00
C169   C     0.86204   0.00000   0.08320   0.06333  Uiso   1.00
N170   N     0.78304   0.00000   0.10139   0.06333  Uiso   1.00
H171   H     0.81262   0.00000   0.05542   0.06333  Uiso   1.00
H172   H     0.85319   0.00000   0.05464   0.06333  Uiso   1.00
C173   C     0.75000   0.05715   0.03820   0.06333  Uiso   1.00
C174   C     0.75000   0.11204   0.04180   0.06333  Uiso   1.00
N175   N     0.75000   0.03304   0.02361   0.06333  Uiso   1.00
H176   H     0.75000   0.06262   0.06958   0.06333  Uiso   1.00
H177   H     0.75000   0.10319   0.07036   0.06333  Uiso   1.00
C178   C     0.75000   0.19285   0.03820   0.06333  Uiso   1.00
C179   C     0.75000   0.13796   0.04180   0.06333  Uiso   1.00
N180   N     0.75000   0.21696   0.02361   0.06333  Uiso   1.00
H181   H     0.75000   0.18738   0.06958   0.06333  Uiso   1.00
H182   H     0.75000   0.14681   0.07036   0.06333  Uiso   1.00
C183   C     0.80715   0.00000   0.16320   0.06333  Uiso   1.00
C184   C     0.86204   0.00000   0.16680   0.06333  Uiso   1.00
N185   N     0.78304   0.00000   0.14861   0.06333  Uiso   1.00
H186   H     0.81262   0.00000   0.19458   0.06333  Uiso   1.00
H187   H     0.85319   0.00000   0.19536   0.06333  Uiso   1.00
C188   C     0.94285   0.00000   0.16320   0.06333  Uiso   1.00
C189   C     0.88796   0.00000   0.16680   0.06333  Uiso   1.00
N190   N     0.96696   0.00000   0.14861   0.06333  Uiso   1.00
H191   H     0.93738   0.00000   0.19458   0.06333  Uiso   1.00
H192   H     0.89681   0.00000   0.19536   0.06333  Uiso   1.00
C193   C     0.75000   0.07205   0.00000   0.06333  Uiso   1.00
C194   C     0.75000   0.09909   0.00000   0.06333  Uiso   1.00
C195   C     0.75000   0.17795   0.00000   0.06333  Uiso   1.00
C196   C     0.75000   0.15091   0.00000   0.06333  Uiso   1.00
C197   C     0.92795   0.00000   0.12500   0.06333  Uiso   1.00
C198   C     0.90091   0.00000   0.12500   0.06333  Uiso   1.00
C199   C     0.82205   0.00000   0.12500   0.06333  Uiso   1.00
C200   C     0.84909   0.00000   0.12500   0.06333  Uiso   1.00
Fe201  Fe    0.00000   0.25000   0.06250   0.06333  Uiso   1.00
Fe202  Fe    0.00000   0.25000   0.18750   0.06333  Uiso   1.00
C203   C     0.00000   0.30715   0.21180   0.06333  Uiso   1.00
C204   C     0.00000   0.36204   0.20820   0.06333  Uiso   1.00
N205   N     0.00000   0.28304   0.22639   0.06333  Uiso   1.00
H206   H     0.00000   0.31262   0.18042   0.06333  Uiso   1.00
H207   H     0.00000   0.35319   0.17964   0.06333  Uiso   1.00
C208   C     0.00000   0.44285   0.21180   0.06333  Uiso   1.00
C209   C     0.00000   0.38796   0.20820   0.06333  Uiso   1.00
N210   N     0.00000   0.46696   0.22639   0.06333  Uiso   1.00
H211   H     0.00000   0.43738   0.18042   0.06333  Uiso   1.00
H212   H     0.00000   0.39681   0.17964   0.06333  Uiso   1.00
C213   C     0.19285   0.25000   0.08680   0.06333  Uiso   1.00
C214   C     0.13796   0.25000   0.08320   0.06333  Uiso   1.00
N215   N     0.21696   0.25000   0.10139   0.06333  Uiso   1.00
H216   H     0.18738   0.25000   0.05542   0.06333  Uiso   1.00
H217   H     0.14681   0.25000   0.05464   0.06333  Uiso   1.00
C218   C     0.05715   0.25000   0.08680   0.06333  Uiso   1.00
C219   C     0.11204   0.25000   0.08320   0.06333  Uiso   1.00
N220   N     0.03304   0.25000   0.10139   0.06333  Uiso   1.00
H221   H     0.06262   0.25000   0.05542   0.06333  Uiso   1.00
H222   H     0.10319   0.25000   0.05464   0.06333  Uiso   1.00
C223   C     0.00000   0.30715   0.03820   0.06333  Uiso   1.00
C224   C     0.00000   0.36204   0.04180   0.06333  Uiso   1.00
N225   N     0.00000   0.28304   0.02361   0.06333  Uiso   1.00
H226   H     0.00000   0.31262   0.06958   0.06333  Uiso   1.00
H227   H     0.00000   0.35319   0.07036   0.06333  Uiso   1.00
C228   C     0.00000   0.44285   0.03820   0.06333  Uiso   1.00
C229   C     0.00000   0.38796   0.04180   0.06333  Uiso   1.00
N230   N     0.00000   0.46696   0.02361   0.06333  Uiso   1.00
H231   H     0.00000   0.43738   0.06958   0.06333  Uiso   1.00
H232   H     0.00000   0.39681   0.07036   0.06333  Uiso   1.00
C233   C     0.05715   0.25000   0.16320   0.06333  Uiso   1.00
C234   C     0.11204   0.25000   0.16680   0.06333  Uiso   1.00
N235   N     0.03304   0.25000   0.14861   0.06333  Uiso   1.00
H236   H     0.06262   0.25000   0.19458   0.06333  Uiso   1.00
H237   H     0.10319   0.25000   0.19536   0.06333  Uiso   1.00
C238   C     0.19285   0.25000   0.16320   0.06333  Uiso   1.00
C239   C     0.13796   0.25000   0.16680   0.06333  Uiso   1.00
N240   N     0.21696   0.25000   0.14861   0.06333  Uiso   1.00
H241   H     0.18738   0.25000   0.19458   0.06333  Uiso   1.00
H242   H     0.14681   0.25000   0.19536   0.06333  Uiso   1.00
C243   C     0.00000   0.32205   0.00000   0.06333  Uiso   1.00
C244   C     0.00000   0.34909   0.00000   0.06333  Uiso   1.00
C245   C     0.00000   0.42795   0.00000   0.06333  Uiso   1.00
C246   C     0.00000   0.40091   0.00000   0.06333  Uiso   1.00
C247   C     0.17795   0.25000   0.12500   0.06333  Uiso   1.00
C248   C     0.15091   0.25000   0.12500   0.06333  Uiso   1.00
C249   C     0.07205   0.25000   0.12500   0.06333  Uiso   1.00
C250   C     0.09909   0.25000   0.12500   0.06333  Uiso   1.00
Fe251  Fe    0.25000   0.25000   0.06250   0.06333  Uiso   1.00
Fe252  Fe    0.25000   0.25000   0.18750   0.06333  Uiso   1.00
C253   C     0.25000   0.30715   0.21180   0.06333  Uiso   1.00
C254   C     0.25000   0.36204   0.20820   0.06333  Uiso   1.00
N255   N     0.25000   0.28304   0.22639   0.06333  Uiso   1.00
H256   H     0.25000   0.31262   0.18042   0.06333  Uiso   1.00
H257   H     0.25000   0.35319   0.17964   0.06333  Uiso   1.00
C258   C     0.25000   0.44285   0.21180   0.06333  Uiso   1.00
C259   C     0.25000   0.38796   0.20820   0.06333  Uiso   1.00
N260   N     0.25000   0.46696   0.22639   0.06333  Uiso   1.00
H261   H     0.25000   0.43738   0.18042   0.06333  Uiso   1.00
H262   H     0.25000   0.39681   0.17964   0.06333  Uiso   1.00
C263   C     0.44285   0.25000   0.08680   0.06333  Uiso   1.00
C264   C     0.38796   0.25000   0.08320   0.06333  Uiso   1.00
N265   N     0.46696   0.25000   0.10139   0.06333  Uiso   1.00
H266   H     0.43738   0.25000   0.05542   0.06333  Uiso   1.00
H267   H     0.39681   0.25000   0.05464   0.06333  Uiso   1.00
C268   C     0.30715   0.25000   0.08680   0.06333  Uiso   1.00
C269   C     0.36204   0.25000   0.08320   0.06333  Uiso   1.00
N270   N     0.28304   0.25000   0.10139   0.06333  Uiso   1.00
H271   H     0.31262   0.25000   0.05542   0.06333  Uiso   1.00
H272   H     0.35319   0.25000   0.05464   0.06333  Uiso   1.00
C273   C     0.25000   0.30715   0.03820   0.06333  Uiso   1.00
C274   C     0.25000   0.36204   0.04180   0.06333  Uiso   1.00
N275   N     0.25000   0.28304   0.02361   0.06333  Uiso   1.00
H276   H     0.25000   0.31262   0.06958   0.06333  Uiso   1.00
H277   H     0.25000   0.35319   0.07036   0.06333  Uiso   1.00
C278   C     0.25000   0.44285   0.03820   0.06333  Uiso   1.00
C279   C     0.25000   0.38796   0.04180   0.06333  Uiso   1.00
N280   N     0.25000   0.46696   0.02361   0.06333  Uiso   1.00
H281   H     0.25000   0.43738   0.06958   0.06333  Uiso   1.00
H282   H     0.25000   0.39681   0.07036   0.06333  Uiso   1.00
C283   C     0.30715   0.25000   0.16320   0.06333  Uiso   1.00
C284   C     0.36204   0.25000   0.16680   0.06333  Uiso   1.00
N285   N     0.28304   0.25000   0.14861   0.06333  Uiso   1.00
H286   H     0.31262   0.25000   0.19458   0.06333  Uiso   1.00
H287   H     0.35319   0.25000   0.19536   0.06333  Uiso   1.00
C288   C     0.44285   0.25000   0.16320   0.06333  Uiso   1.00
C289   C     0.38796   0.25000   0.16680   0.06333  Uiso   1.00
N290   N     0.46696   0.25000   0.14861   0.06333  Uiso   1.00
H291   H     0.43738   0.25000   0.19458   0.06333  Uiso   1.00
H292   H     0.39681   0.25000   0.19536   0.06333  Uiso   1.00
C293   C     0.25000   0.32205   0.00000   0.06333  Uiso   1.00
C294   C     0.25000   0.34909   0.00000   0.06333  Uiso   1.00
C295   C     0.25000   0.42795   0.00000   0.06333  Uiso   1.00
C296   C     0.25000   0.40091   0.00000   0.06333  Uiso   1.00
C297   C     0.42795   0.25000   0.12500   0.06333  Uiso   1.00
C298   C     0.40091   0.25000   0.12500   0.06333  Uiso   1.00
C299   C     0.32205   0.25000   0.12500   0.06333  Uiso   1.00
C300   C     0.34909   0.25000   0.12500   0.06333  Uiso   1.00
Fe301  Fe    0.50000   0.25000   0.06250   0.06333  Uiso   1.00
Fe302  Fe    0.50000   0.25000   0.18750   0.06333  Uiso   1.00
C303   C     0.50000   0.30715   0.21180   0.06333  Uiso   1.00
C304   C     0.50000   0.36204   0.20820   0.06333  Uiso   1.00
N305   N     0.50000   0.28304   0.22639   0.06333  Uiso   1.00
H306   H     0.50000   0.31262   0.18042   0.06333  Uiso   1.00
H307   H     0.50000   0.35319   0.17964   0.06333  Uiso   1.00
C308   C     0.50000   0.44285   0.21180   0.06333  Uiso   1.00
C309   C     0.50000   0.38796   0.20820   0.06333  Uiso   1.00
N310   N     0.50000   0.46696   0.22639   0.06333  Uiso   1.00
H311   H     0.50000   0.43738   0.18042   0.06333  Uiso   1.00
H312   H     0.50000   0.39681   0.17964   0.06333  Uiso   1.00
C313   C     0.69285   0.25000   0.08680   0.06333  Uiso   1.00
C314   C     0.63796   0.25000   0.08320   0.06333  Uiso   1.00
N315   N     0.71696   0.25000   0.10139   0.06333  Uiso   1.00
H316   H     0.68738   0.25000   0.05542   0.06333  Uiso   1.00
H317   H     0.64681   0.25000   0.05464   0.06333  Uiso   1.00
C318   C     0.55715   0.25000   0.08680   0.06333  Uiso   1.00
C319   C     0.61204   0.25000   0.08320   0.06333  Uiso   1.00
N320   N     0.53304   0.25000   0.10139   0.06333  Uiso   1.00
H321   H     0.56262   0.25000   0.05542   0.06333  Uiso   1.00
H322   H     0.60319   0.25000   0.05464   0.06333  Uiso   1.00
C323   C     0.50000   0.30715   0.03820   0.06333  Uiso   1.00
C324   C     0.50000   0.36204   0.04180   0.06333  Uiso   1.00
N325   N     0.50000   0.28304   0.02361   0.06333  Uiso   1.00
H326   H     0.50000   0.31262   0.06958   0.06333  Uiso   1.00
H327   H     0.50000   0.35319   0.07036   0.06333  Uiso   1.00
C328   C     0.50000   0.44285   0.03820   0.06333  Uiso   1.00
C329   C     0.50000   0.38796   0.04180   0.06333  Uiso   1.00
N330   N     0.50000   0.46696   0.02361   0.06333  Uiso   1.00
H331   H     0.50000   0.43738   0.06958   0.06333  Uiso   1.00
H332   H     0.50000   0.39681   0.07036   0.06333  Uiso   1.00
C333   C     0.55715   0.25000   0.16320   0.06333  Uiso   1.00
C334   C     0.61204   0.25000   0.16680   0.06333  Uiso   1.00
N335   N     0.53304   0.25000   0.14861   0.06333  Uiso   1.00
H336   H     0.56262   0.25000   0.19458   0.06333  Uiso   1.00
H337   H     0.60319   0.25000   0.19536   0.06333  Uiso   1.00
C338   C     0.69285   0.25000   0.16320   0.06333  Uiso   1.00
C339   C     0.63796   0.25000   0.16680   0.06333  Uiso   1.00
N340   N     0.71696   0.25000   0.14861   0.06333  Uiso   1.00
H341   H     0.68738   0.25000   0.19458   0.06333  Uiso   1.00
H342   H     0.64681   0.25000   0.19536   0.06333  Uiso   1.00
C343   C     0.50000   0.32205   0.00000   0.06333  Uiso   1.00
C344   C     0.50000   0.34909   0.00000   0.06333  Uiso   1.00
C345   C     0.50000   0.42795   0.00000   0.06333  Uiso   1.00
C346   C     0.50000   0.40091   0.00000   0.06333  Uiso   1.00
C347   C     0.67795   0.25000   0.12500   0.06333  Uiso   1.00
C348   C     0.65091   0.25000   0.12500   0.06333  Uiso   1.00
C349   C     0.57205   0.25000   0.12500   0.06333  Uiso   1.00
C350   C     0.59909   0.25000   0.12500   0.06333  Uiso   1.00
Fe351  Fe    0.75000   0.25000   0.06250   0.06333  Uiso   1.00
Fe352  Fe    0.75000   0.25000   0.18750   0.06333  Uiso   1.00
C353   C     0.75000   0.30715   0.21180   0.06333  Uiso   1.00
C354   C     0.75000   0.36204   0.20820   0.06333  Uiso   1.00
N355   N     0.75000   0.28304   0.22639   0.06333  Uiso   1.00
H356   H     0.75000   0.31262   0.18042   0.06333  Uiso   1.00
H357   H     0.75000   0.35319   0.17964   0.06333  Uiso   1.00
C358   C     0.75000   0.44285   0.21180   0.06333  Uiso   1.00
C359   C     0.75000   0.38796   0.20820   0.06333  Uiso   1.00
N360   N     0.75000   0.46696   0.22639   0.06333  Uiso   1.00
H361   H     0.75000   0.43738   0.18042   0.06333  Uiso   1.00
H362   H     0.75000   0.39681   0.17964   0.06333  Uiso   1.00
C363   C     0.94285   0.25000   0.08680   0.06333  Uiso   1.00
C364   C     0.88796   0.25000   0.08320   0.06333  Uiso   1.00
N365   N     0.96696   0.25000   0.10139   0.06333  Uiso   1.00
H366   H     0.93738   0.25000   0.05542   0.06333  Uiso   1.00
H367   H     0.89681   0.25000   0.05464   0.06333  Uiso   1.00
C368   C     0.80715   0.25000   0.08680   0.06333  Uiso   1.00
C369   C     0.86204   0.25000   0.08320   0.06333  Uiso   1.00
N370   N     0.78304   0.25000   0.10139   0.06333  Uiso   1.00
H371   H     0.81262   0.25000   0.05542   0.06333  Uiso   1.00
H372   H     0.85319   0.25000   0.05464   0.06333  Uiso   1.00
C373   C     0.75000   0.30715   0.03820   0.06333  Uiso   1.00
C374   C     0.75000   0.36204   0.04180   0.06333  Uiso   1.00
N375   N     0.75000   0.28304   0.02361   0.06333  Uiso   1.00
H376   H     0.75000   0.31262   0.06958   0.06333  Uiso   1.00
H377   H     0.75000   0.35319   0.07036   0.06333  Uiso   1.00
C378   C     0.75000   0.44285   0.03820   0.06333  Uiso   1.00
C379   C     0.75000   0.38796   0.04180   0.06333  Uiso   1.00
N380   N     0.75000   0.46696   0.02361   0.06333  Uiso   1.00
H381   H     0.75000   0.43738   0.06958   0.06333  Uiso   1.00
H382   H     0.75000   0.39681   0.07036   0.06333  Uiso   1.00
C383   C     0.80715   0.25000   0.16320   0.06333  Uiso   1.00
C384   C     0.86204   0.25000   0.16680   0.06333  Uiso   1.00
N385   N     0.78304   0.25000   0.14861   0.06333  Uiso   1.00
H386   H     0.81262   0.25000   0.19458   0.06333  Uiso   1.00
H387   H     0.85319   0.25000   0.19536   0.06333  Uiso   1.00
C388   C     0.94285   0.25000   0.16320   0.06333  Uiso   1.00
C389   C     0.88796   0.25000   0.16680   0.06333  Uiso   1.00
N390   N     0.96696   0.25000   0.14861   0.06333  Uiso   1.00
H391   H     0.93738   0.25000   0.19458   0.06333  Uiso   1.00
H392   H     0.89681   0.25000   0.19536   0.06333  Uiso   1.00
C393   C     0.75000   0.32205   0.00000   0.06333  Uiso   1.00
C394   C     0.75000   0.34909   0.00000   0.06333  Uiso   1.00
C395   C     0.75000   0.42795   0.00000   0.06333  Uiso   1.00
C396   C     0.75000   0.40091   0.00000   0.06333  Uiso   1.00
C397   C     0.92795   0.25000   0.12500   0.06333  Uiso   1.00
C398   C     0.90091   0.25000   0.12500   0.06333  Uiso   1.00
C399   C     0.82205   0.25000   0.12500   0.06333  Uiso   1.00
C400   C     0.84909   0.25000   0.12500   0.06333  Uiso   1.00
Fe401  Fe    0.00000   0.50000   0.06250   0.06333  Uiso   1.00
Fe402  Fe    0.00000   0.50000   0.18750   0.06333  Uiso   1.00
C403   C     0.00000   0.55715   0.21180   0.06333  Uiso   1.00
C404   C     0.00000   0.61204   0.20820   0.06333  Uiso   1.00
N405   N     0.00000   0.53304   0.22639   0.06333  Uiso   1.00
H406   H     0.00000   0.56262   0.18042   0.06333  Uiso   1.00
H407   H     0.00000   0.60319   0.17964   0.06333  Uiso   1.00
C408   C     0.00000   0.69285   0.21180   0.06333  Uiso   1.00
C409   C     0.00000   0.63796   0.20820   0.06333  Uiso   1.00
N410   N     0.00000   0.71696   0.22639   0.06333  Uiso   1.00
H411   H     0.00000   0.68738   0.18042   0.06333  Uiso   1.00
H412   H     0.00000   0.64681   0.17964   0.06333  Uiso   1.00
C413   C     0.19285   0.50000   0.08680   0.06333  Uiso   1.00
C414   C     0.13796   0.50000   0.08320   0.06333  Uiso   1.00
N415   N     0.21696   0.50000   0.10139   0.06333  Uiso   1.00
H416   H     0.18738   0.50000   0.05542   0.06333  Uiso   1.00
H417   H     0.14681   0.50000   0.05464   0.06333  Uiso   1.00
C418   C     0.05715   0.50000   0.08680   0.06333  Uiso   1.00
C419   C     0.11204   0.50000   0.08320   0.06333  Uiso   1.00
N420   N     0.03304   0.50000   0.10139   0.06333  Uiso   1.00
H421   H     0.06262   0.50000   0.05542   0.06333  Uiso   1.00
H422   H     0.10319   0.50000   0.05464   0.06333  Uiso   1.00
C423   C     0.00000   0.55715   0.03820   0.06333  Uiso   1.00
C424   C     0.00000   0.61204   0.04180   0.06333  Uiso   1.00
N425   N     0.00000   0.53304   0.02361   0.06333  Uiso   1.00
H426   H     0.00000   0.56262   0.06958   0.06333  Uiso   1.00
H427   H     0.00000   0.60319   0.07036   0.06333  Uiso   1.00
C428   C     0.00000   0.69285   0.03820   0.06333  Uiso   1.00
C429   C     0.00000   0.63796   0.04180   0.06333  Uiso   1.00
N430   N     0.00000   0.71696   0.02361   0.06333  Uiso   1.00
H431   H     0.00000   0.68738   0.06958   0.06333  Uiso   1.00
H432   H     0.00000   0.64681   0.07036   0.06333  Uiso   1.00
C433   C     0.05715   0.50000   0.16320   0.06333  Uiso   1.00
C434   C     0.11204   0.50000   0.16680   0.06333  Uiso   1.00
N435   N     0.03304   0.50000   0.14861   0.06333  Uiso   1.00
H436   H     0.06262   0.50000   0.19458   0.06333  Uiso   1.00
H437   H     0.10319   0.50000   0.19536   0.06333  Uiso   1.00
C438   C     0.19285   0.50000   0.16320   0.06333  Uiso   1.00
C439   C     0.13796   0.50000   0.16680   0.06333  Uiso   1.00
N440   N     0.21696   0.50000   0.14861   0.06333  Uiso   1.00
H441   H     0.18738   0.50000   0.19458   0.06333  Uiso   1.00
H442   H     0.14681   0.50000   0.19536   0.06333  Uiso   1.00
C443   C     0.00000   0.57205   0.00000   0.06333  Uiso   1.00
C444   C     0.00000   0.59909   0.00000   0.06333  Uiso   1.00
C445   C     0.00000   0.67795   0.00000   0.06333  Uiso   1.00
C446   C     0.00000   0.65091   0.00000   0.06333  Uiso   1.00
C447   C     0.17795   0.50000   0.12500   0.06333  Uiso   1.00
C448   C     0.15091   0.50000   0.12500   0.06333  Uiso   1.00
C449   C     0.07205   0.50000   0.12500   0.06333  Uiso   1.00
C450   C     0.09909   0.50000   0.12500   0.06333  Uiso   1.00
Fe451  Fe    0.25000   0.50000   0.06250   0.06333  Uiso   1.00
Fe452  Fe    0.25000   0.50000   0.18750   0.06333  Uiso   1.00
C453   C     0.25000   0.55715   0.21180   0.06333  Uiso   1.00
C454   C     0.25000   0.61204   0.20820   0.06333  Uiso   1.00
N455   N     0.25000   0.53304   0.22639   0.06333  Uiso   1.00
H456   H     0.25000   0.56262   0.18042   0.06333  Uiso   1.00
H457   H     0.25000   0.60319   0.17964   0.06333  Uiso   1.00
C458   C     0.25000   0.69285   0.21180   0.06333  Uiso   1.00
C459   C     0.25000   0.63796   0.20820   0.06333  Uiso   1.00
N460   N     0.25000   0.71696   0.22639   0.06333  Uiso   1.00
H461   H     0.25000   0.68738   0.18042   0.06333  Uiso   1.00
H462   H     0.25000   0.64681   0.17964   0.06333  Uiso   1.00
C463   C     0.44285   0.50000   0.08680   0.06333  Uiso   1.00
C464   C     0.38796   0.50000   0.08320   0.06333  Uiso   1.00
N465   N     0.46696   0.50000   0.10139   0.06333  Uiso   1.00
H466   H     0.43738   0.50000   0.05542   0.06333  Uiso   1.00
H467   H     0.39681   0.50000   0.05464   0.06333  Uiso   1.00
C468   C     0.30715   0.50000   0.08680   0.06333  Uiso   1.00
C469   C     0.36204   0.50000   0.08320   0.06333  Uiso   1.00
N470   N     0.28304   0.50000   0.10139   0.06333  Uiso   1.00
H471   H     0.31262   0.50000   0.05542   0.06333  Uiso   1.00
H472   H     0.35319   0.50000   0.05464   0.06333  Uiso   1.00
C473   C     0.25000   0.55715   0.03820   0.06333  Uiso   1.00
C474   C     0.25000   0.61204   0.04180   0.06333  Uiso   1.00
N475   N     0.25000   0.53304   0.02361   0.06333  Uiso   1.00
H476   H     0.25000   0.56262   0.06958   0.06333  Uiso   1.00
H477   H     0.25000   0.60319   0.07036   0.06333  Uiso   1.00
C478   C     0.25000   0.69285   0.03820   0.06333  Uiso   1.00
C479   C     0.25000   0.63796   0.04180   0.06333  Uiso   1.00
N480   N     0.25000   0.71696   0.02361   0.06333  Uiso   1.00
H481   H     0.25000   0.68738   0.06958   0.06333  Uiso   1.00
H482   H     0.25000   0.64681   0.07036   0.06333  Uiso   1.00
C483   C     0.30715   0.50000   0.16320   0.06333  Uiso   1.00
C484   C     0.36204   0.50000   0.16680   0.06333  Uiso   1.00
N485   N     0.28304   0.50000   0.14861   0.06333  Uiso   1.00
H486   H     0.31262   0.50000   0.19458   0.06333  Uiso   1.00
H487   H     0.35319   0.50000   0.19536   0.06333  Uiso   1.00
C488   C     0.44285   0.50000   0.16320   0.06333  Uiso   1.00
C489   C     0.38796   0.50000   0.16680   0.06333  Uiso   1.00
N490   N     0.46696   0.50000   0.14861   0.06333  Uiso   1.00
H491   H     0.43738   0.50000   0.19458   0.06333  Uiso   1.00
H492   H     0.39681   0.50000   0.19536   0.06333  Uiso   1.00
C493   C     0.25000   0.57205   0.00000   0.06333  Uiso   1.00
C494   C     0.25000   0.59909   0.00000   0.06333  Uiso   1.00
C495   C     0.25000   0.67795   0.00000   0.06333  Uiso   1.00
C496   C     0.25000   0.65091   0.00000   0.06333  Uiso   1.00
C497   C     0.42795   0.50000   0.12500   0.06333  Uiso   1.00
C498   C     0.40091   0.50000   0.12500   0.06333  Uiso   1.00
C499   C     0.32205   0.50000   0.12500   0.06333  Uiso   1.00
C500   C     0.34909   0.50000   0.12500   0.06333  Uiso   1.00
Fe501  Fe    0.50000   0.50000   0.06250   0.06333  Uiso   1.00
Fe502  Fe    0.50000   0.50000   0.18750   0.06333  Uiso   1.00
C503   C     0.50000   0.55715   0.21180   0.06333  Uiso   1.00
C504   C     0.50000   0.61204   0.20820   0.06333  Uiso   1.00
N505   N     0.50000   0.53304   0.22639   0.06333  Uiso   1.00
H506   H     0.50000   0.56262   0.18042   0.06333  Uiso   1.00
H507   H     0.50000   0.60319   0.17964   0.06333  Uiso   1.00
C508   C     0.50000   0.69285   0.21180   0.06333  Uiso   1.00
C509   C     0.50000   0.63796   0.20820   0.06333  Uiso   1.00
N510   N     0.50000   0.71696   0.22639   0.06333  Uiso   1.00
H511   H     0.50000   0.68738   0.18042   0.06333  Uiso   1.00
H512   H     0.50000   0.64681   0.17964   0.06333  Uiso   1.00
C513   C     0.69285   0.50000   0.08680   0.06333  Uiso   1.00
C514   C     0.63796   0.50000   0.08320   0.06333  Uiso   1.00
N515   N     0.71696   0.50000   0.10139   0.06333  Uiso   1.00
H516   H     0.68738   0.50000   0.05542   0.06333  Uiso   1.00
H517   H     0.64681   0.50000   0.05464   0.06333  Uiso   1.00
C518   C     0.55715   0.50000   0.08680   0.06333  Uiso   1.00
C519   C     0.61204   0.50000   0.08320   0.06333  Uiso   1.00
N520   N     0.53304   0.50000   0.10139   0.06333  Uiso   1.00
H521   H     0.56262   0.50000   0.05542   0.06333  Uiso   1.00
H522   H     0.60319   0.50000   0.05464   0.06333  Uiso   1.00
C523   C     0.50000   0.55715   0.03820   0.06333  Uiso   1.00
C524   C     0.50000   0.61204   0.04180   0.06333  Uiso   1.00
N525   N     0.50000   0.53304   0.02361   0.06333  Uiso   1.00
H526   H     0.50000   0.56262   0.06958   0.06333  Uiso   1.00
H527   H     0.50000   0.60319   0.07036   0.06333  Uiso   1.00
C528   C     0.50000   0.69285   0.03820   0.06333  Uiso   1.00
C529   C     0.50000   0.63796   0.04180   0.06333  Uiso   1.00
N530   N     0.50000   0.71696   0.02361   0.06333  Uiso   1.00
H531   H     0.50000   0.68738   0.06958   0.06333  Uiso   1.00
H532   H     0.50000   0.64681   0.07036   0.06333  Uiso   1.00
C533   C     0.55715   0.50000   0.16320   0.06333  Uiso   1.00
C534   C     0.61204   0.50000   0.16680   0.06333  Uiso   1.00
N535   N     0.53304   0.50000   0.14861   0.06333  Uiso   1.00
H536   H     0.56262   0.50000   0.19458   0.06333  Uiso   1.00
H537   H     0.60319   0.50000   0.19536   0.06333  Uiso   1.00
C538   C     0.69285   0.50000   0.16320   0.06333  Uiso   1.00
C539   C     0.63796   0.50000   0.16680   0.06333  Uiso   1.00
N540   N     0.71696   0.50000   0.14861   0.06333  Uiso   1.00
H541   H     0.68738   0.50000   0.19458   0.06333  Uiso   1.00
H542   H     0.64681   0.50000   0.19536   0.06333  Uiso   1.00
C543   C     0.50000   0.57205   0.00000   0.06333  Uiso   1.00
C544   C     0.50000   0.59909   0.00000   0.06333  Uiso   1.00
C545   C     0.50000   0.67795   0.00000   0.06333  Uiso   1.00
C546   C     0.50000   0.65091   0.00000   0.06333  Uiso   1.00
C547   C     0.67795   0.50000   0.12500   0.06333  Uiso   1.00
C548   C     0.65091   0.50000   0.12500   0.06333  Uiso   1.00
C549   C     0.57205   0.50000   0.12500   0.06333  Uiso   1.00
C550   C     0.59909   0.50000   0.12500   0.06333  Uiso   1.00
Fe551  Fe    0.75000   0.50000   0.06250   0.06333  Uiso   1.00
Fe552  Fe    0.75000   0.50000   0.18750   0.06333  Uiso   1.00
C553   C     0.75000   0.55715   0.21180   0.06333  Uiso   1.00
C554   C     0.75000   0.61204   0.20820   0.06333  Uiso   1.00
N555   N     0.75000   0.53304   0.22639   0.06333  Uiso   1.00
H556   H     0.75000   0.56262   0.18042   0.06333  Uiso   1.00
H557   H     0.75000   0.60319   0.17964   0.06333  Uiso   1.00
C558   C     0.75000   0.69285   0.21180   0.06333  Uiso   1.00
C559   C     0.75000   0.63796   0.20820   0.06333  Uiso   1.00
N560   N     0.75000   0.71696   0.22639   0.06333  Uiso   1.00
H561   H     0.75000   0.68738   0.18042   0.06333  Uiso   1.00
H562   H     0.75000   0.64681   0.17964   0.06333  Uiso   1.00
C563   C     0.94285   0.50000   0.08680   0.06333  Uiso   1.00
C564   C     0.88796   0.50000   0.08320   0.06333  Uiso   1.00
N565   N     0.96696   0.50000   0.10139   0.06333  Uiso   1.00
H566   H     0.93738   0.50000   0.05542   0.06333  Uiso   1.00
H567   H     0.89681   0.50000   0.05464   0.06333  Uiso   1.00
C568   C     0.80715   0.50000   0.08680   0.06333  Uiso   1.00
C569   C     0.86204   0.50000   0.08320   0.06333  Uiso   1.00
N570   N     0.78304   0.50000   0.10139   0.06333  Uiso   1.00
H571   H     0.81262   0.50000   0.05542   0.06333  Uiso   1.00
H572   H     0.85319   0.50000   0.05464   0.06333  Uiso   1.00
C573   C     0.75000   0.55715   0.03820   0.06333  Uiso   1.00
C574   C     0.75000   0.61204   0.04180   0.06333  Uiso   1.00
N575   N     0.75000   0.53304   0.02361   0.06333  Uiso   1.00
H576   H     0.75000   0.56262   0.06958   0.06333  Uiso   1.00
H577   H     0.75000   0.60319   0.07036   0.06333  Uiso   1.00
C578   C     0.75000   0.69285   0.03820   0.06333  Uiso   1.00
C579   C     0.75000   0.63796   0.04180   0.06333  Uiso   1.00
N580   N     0.75000   0.71696   0.02361   0.06333  Uiso   1.00
H581   H     0.75000   0.68738   0.06958   0.06333  Uiso   1.00
H582   H     0.75000   0.64681   0.07036   0.06333  Uiso   1.00
C583   C     0.80715   0.50000   0.16320   0.06333  Uiso   1.00
C584   C     0.86204   0.50000   0.16680   0.06333  Uiso   1.00
N585   N     0.78304   0.50000   0.14861   0.06333  Uiso   1.00
H586   H     0.81262   0.50000   0.19458   0.06333  Uiso   1.00
H587   H     0.85319   0.50000   0.19536   0.06333  Uiso   1.00
C588   C     0.94285   0.50000   0.16320   0.06333  Uiso   1.00
C589   C     0.88796   0.50000   0.16680   0.06333  Uiso   1.00
N590   N     0.96696   0.50000   0.14861   0.06333  Uiso   1.00
H591   H     0.93738   0.50000   0.19458   0.06333  Uiso   1.00
H592   H     0.89681   0.50000   0.19536   0.06333  Uiso   1.00
C593   C     0.75000   0.57205   0.00000   0.06333  Uiso   1.00
C594   C     0.75000   0.59909   0.00000   0.06333  Uiso   1.00
C595   C     0.75000   0.67795   0.00000   0.06333  Uiso   1.00
C596   C     0.75000   0.65091   0.00000   0.06333  Uiso   1.00
C597   C     0.92795   0.50000   0.12500   0.06333  Uiso   1.00
C598   C     0.90091   0.50000   0.12500   0.06333  Uiso   1.00
C599   C     0.82205   0.50000   0.12500   0.06333  Uiso   1.00
C600   C     0.84909   0.50000   0.12500   0.06333  Uiso   1.00
Fe601  Fe    0.00000   0.75000   0.06250   0.06333  Uiso   1.00
Fe602  Fe    0.00000   0.75000   0.18750   0.06333  Uiso   1.00
C603   C     0.00000   0.80715   0.21180   0.06333  Uiso   1.00
C604   C     0.00000   0.86204   0.20820   0.06333  Uiso   1.00
N605   N     0.00000   0.78304   0.22639   0.06333  Uiso   1.00
H606   H     0.00000   0.81262   0.18042   0.06333  Uiso   1.00
H607   H     0.00000   0.85319   0.17964   0.06333  Uiso   1.00
C608   C     0.00000   0.94285   0.21180   0.06333  Uiso   1.00
C609   C     0.00000   0.88796   0.20820   0.06333  Uiso   1.00
N610   N     0.00000   0.96696   0.22639   0.06333  Uiso   1.00
H611   H     0.00000   0.93738   0.18042   0.06333  Uiso   1.00
H612   H     0.00000   0.89681   0.17964   0.06333  Uiso   1.00
C613   C     0.19285   0.75000   0.08680   0.06333  Uiso   1.00
C614   C     0.13796   0.75000   0.08320   0.06333  Uiso   1.00
N615   N     0.21696   0.75000   0.10139   0.06333  Uiso   1.00
H616   H     0.18738   0.75000   0.05542   0.06333  Uiso   1.00
H617   H     0.14681   0.75000   0.05464   0.06333  Uiso   1.00
C618   C     0.05715   0.75000   0.08680   0.06333  Uiso   1.00
C619   C     0.11204   0.75000   0.08320   0.06333  Uiso   1.00
N620   N     0.03304   0.75000   0.10139   0.06333  Uiso   1.00
H621   H     0.06262   0.75000   0.05542   0.06333  Uiso   1.00
H622   H     0.10319   0.75000   0.05464   0.06333  Uiso   1.00
C623   C     0.00000   0.80715   0.03820   0.06333  Uiso   1.00
C624   C     0.00000   0.86204   0.04180   0.06333  Uiso   1.00
N625   N     0.00000   0.78304   0.02361   0.06333  Uiso   1.00
H626   H     0.00000   0.81262   0.06958   0.06333  Uiso   1.00
H627   H     0.00000   0.85319   0.07036   0.06333  Uiso   1.00
C628   C     0.00000   0.94285   0.03820   0.06333  Uiso   1.00
C629   C     0.00000   0.88796   0.04180   0.06333  Uiso   1.00
N630   N     0.00000   0.96696   0.02361   0.06333  Uiso   1.00
H631   H     0.00000   0.93738   0.06958   0.06333  Uiso   1.00
H632   H     0.00000   0.89681   0.07036   0.06333  Uiso   1.00
C633   C     0.05715   0.75000   0.16320   0.06333  Uiso   1.00
C634   C     0.11204   0.75000   0.16680   0.06333  Uiso   1.00
N635   N     0.03304   0.75000   0.14861   0.06333  Uiso   1.00
H636   H     0.06262   0.75000   0.19458   0.06333  Uiso   1.00
H637   H     0.10319   0.75000   0.19536   0.06333  Uiso   1.00
C638   C     0.19285   0.75000   0.16320   0.06333  Uiso   1.00
C639   C     0.13796   0.75000   0.16680   0.06333  Uiso   1.00
N640   N     0.21696   0.75000   0.14861   0.06333  Uiso   1.00
H641   H     0.18738   0.75000   0.19458   0.06333  Uiso   1.00
H642   H     0.14681   0.75000   0.19536   0.06333  Uiso   1.00
C643   C     0.00000   0.82205   0.00000   0.06333  Uiso   1.00
C644   C     0.00000   0.84909   0.00000   0.06333  Uiso   1.00
C645   C     0.00000   0.92795   0.00000   0.06333  Uiso   1.00
C646   C     0.00000   0.90091   0.00000   0.06333  Uiso   1.00
C647   C     0.17795   0.75000   0.12500   0.06333  Uiso   1.00
C648   C     0.15091   0.75000   0.12500   0.06333  Uiso   1.00
C649   C     0.07205   0.75000   0.12500   0.06333  Uiso   1.00
C650   C     0.09909   0.75000   0.12500   0.06333  Uiso   1.00
Fe651  Fe    0.25000   0.75000   0.06250   0.06333  Uiso   1.00
Fe652  Fe    0.25000   0.75000   0.18750   0.06333  Uiso   1.00
C653   C     0.25000   0.80715   0.21180   0.06333  Uiso   1.00
C654   C     0.25000   0.86204   0.20820   0.06333  Uiso   1.00
N655   N     0.25000   0.78304   0.22639   0.06333  Uiso   1.00
H656   H     0.25000   0.81262   0.18042   0.06333  Uiso   1.00
H657   H     0.25000   0.85319   0.17964   0.06333  Uiso   1.00
C658   C     0.25000   0.94285   0.21180   0.06333  Uiso   1.00
C659   C     0.25000   0.88796   0.20820   0.06333  Uiso   1.00
N660   N     0.25000   0.96696   0.22639   0.06333  Uiso   1.00
H661   H     0.25000   0.93738   0.18042   0.06333  Uiso   1.00
H662   H     0.25000   0.89681   0.17964   0.06333  Uiso   1.00
C663   C     0.44285   0.75000   0.08680   0.06333  Uiso   1.00
C664   C     0.38796   0.75000   0.08320   0.06333  Uiso   1.00
N665   N     0.46696   0.75000   0.10139   0.06333  Uiso   1.00
H666   H     0.43738   0.75000   0.05542   0.06333  Uiso   1.00
H667   H     0.39681   0.75000   0.05464   0.06333  Uiso   1.00
C668   C     0.30715   0.75000   0.08680   0.06333  Uiso   1.00
C669   C     0.36204   0.75000   0.08320   0.06333  Uiso   1.00
N670   N     0.28304   0.75000   0.10139   0.06333  Uiso   1.00
H671   H     0.31262   0.75000   0.05542   0.06333  Uiso   1.00
H672   H     0.35319   0.75000   0.05464   0.06333  Uiso   1.00
C673   C     0.25000   0.80715   0.03820   0.06333  Uiso   1.00
C674   C     0.25000   0.86204   0.04180   0.06333  Uiso   1.00
N675   N     0.25000   0.78304   0.02361   0.06333  Uiso   1.00
H676   H     0.25000   0.81262   0.06958   0.06333  Uiso   1.00
H677   H     0.25000   0.85319   0.07036   0.06333  Uiso   1.00
C678   C     0.25000   0.94285   0.03820   0.06333  Uiso   1.00
C679   C     0.25000   0.88796   0.04180   0.06333  Uiso   1.00
N680   N     0.25000   0.96696   0.02361   0.06333  Uiso   1.00
H681   H     0.25000   0.93738   0.06958   0.06333  Uiso   1.00
H682   H     0.25000   0.89681   0.07036   0.06333  Uiso   1.00
C683   C     0.30715   0.75000   0.16320   0.06333  Uiso   1.00
C684   C     0.36204   0.75000   0.16680   0.06333  Uiso   1.00
N685   N     0.28304   0.75000   0.14861   0.06333  Uiso   1.00
H686   H     0.31262   0.75000   0.19458   0.06333  Uiso   1.00
H687   H     0.35319   0.75000   0.19536   0.06333  Uiso   1.00
C688   C     0.44285   0.75000   0.16320   0.06333  Uiso   1.00
C689   C     0.38796   0.75000   0.16680   0.06333  Uiso   1.00
N690   N     0.46696   0.75000   0.14861   0.06333  Uiso   1.00
H691   H     0.43738   0.75000   0.19458   0.06333  Uiso   1.00
H692   H     0.39681   0.75000   0.19536   0.06333  Uiso   1.00
C693   C     0.25000   0.82205   0.00000   0.06333  Uiso   1.00
C694   C     0.25000   0.84909   0.00000   0.06333  Uiso   1.00
C695   C     0.25000   0.92795   0.00000   0.06333  Uiso   1.00
C696   C     0.25000   0.90091   0.00000   0.06333  Uiso   1.00
C697   C     0.42795   0.75000   0.12500   0.06333  Uiso   1.00
C698   C     0.40091   0.75000   0.12500   0.06333  Uiso   1.00
C699   C     0.32205   0.75000   0.12500   0.06333  Uiso   1.00
C700   C     0.34909   0.75000   0.12500   0.06333  Uiso   1.00
Fe701  Fe    0.50000   0.75000   0.06250   0.06333  Uiso   1.00
Fe702  Fe    0.50000   0.75000   0.18750   0.06333  Uiso   1.00
C703   C     0.50000   0.80715   0.21180   0.06333  Uiso   1.00
C704   C     0.50000   0.86204   0.20820   0.06333  Uiso   1.00
N705   N     0.50000   0.78304   0.22639   0.06333  Uiso   1.00
H706   H     0.50000   0.81262   0.18042   0.06333  Uiso   1.00
H707   H     0.50000   0.85319   0.17964   0.06333  Uiso   1.00
C708   C     0.50000   0.94285   0.21180   0.06333  Uiso   1.00
C709   C     0.50000   0.88796   0.20820   0.06333  Uiso   1.00
N710   N     0.50000   0.96696   0.22639   0.06333  Uiso   1.00
H711   H     0.50000   0.93738   0.18042   0.06333  Uiso   1.00
H712   H     0.50000   0.89681   0.17964   0.06333  Uiso   1.00
C713   C     0.69285   0.75000   0.08680   0.06333  Uiso   1.00
C714   C     0.63796   0.75000   0.08320   0.06333  Uiso   1.00
N715   N     0.71696   0.75000   0.10139   0.06333  Uiso   1.00
H716   H     0.68738   0.75000   0.05542   0.06333  Uiso   1.00
H717   H     0.64681   0.75000   0.05464   0.06333  Uiso   1.00
C718   C     0.55715   0.75000   0.08680   0.06333  Uiso   1.00
C719   C     0.61204   0.75000   0.08320   0.06333  Uiso   1.00
N720   N     0.53304   0.75000   0.10139   0.06333  Uiso   1.00
H721   H     0.56262   0.75000   0.05542   0.06333  Uiso   1.00
H722   H     0.60319   0.75000   0.05464   0.06333  Uiso   1.00
C723   C     0.50000   0.80715   0.03820   0.06333  Uiso   1.00
C724   C     0.50000   0.86204   0.04180   0.06333  Uiso   1.00
N725   N     0.50000   0.78304   0.02361   0.06333  Uiso   1.00
H726   H     0.50000   0.81262   0.06958   0.06333  Uiso   1.00
H727   H     0.50000   0.85319   0.07036   0.06333  Uiso   1.00
C728   C     0.50000   0.94285   0.03820   0.06333  Uiso   1.00
C729   C     0.50000   0.88796   0.04180   0.06333  Uiso   1.00
N730   N     0.50000   0.96696   0.02361   0.06333  Uiso   1.00
H731   H     0.50000   0.93738   0.06958   0.06333  Uiso   1.00
H732   H     0.50000   0.89681   0.07036   0.06333  Uiso   1.00
C733   C     0.55715   0.75000   0.16320   0.06333  Uiso   1.00
C734   C     0.61204   0.75000   0.16680   0.06333  Uiso   1.00
N735   N     0.53304   0.75000   0.14861   0.06333  Uiso   1.00
H736   H     0.56262   0.75000   0.19458   0.06333  Uiso   1.00
H737   H     0.60319   0.75000   0.19536   0.06333  Uiso   1.00
C738   C     0.69285   0.75000   0.16320   0.06333  Uiso   1.00
C739   C     0.63796   0.75000   0.16680   0.06333  Uiso   1.00
N740   N     0.71696   0.75000   0.14861   0.06333  Uiso   1.00
H741   H     0.68738   0.75000   0.19458   0.06333  Uiso   1.00
H742   H     0.64681   0.75000   0.19536   0.06333  Uiso   1.00
C743   C     0.50000   0.82205   0.00000   0.06333  Uiso   1.00
C744   C     0.50000   0.84909   0.00000   0.06333  Uiso   1.00
C745   C     0.50000   0.92795   0.00000   0.06333  Uiso   1.00
C746   C     0.50000   0.90091   0.00000   0.06333  Uiso   1.00
C747   C     0.67795   0.75000   0.12500   0.06333  Uiso   1.00
C748   C     0.65091   0.75000   0.12500   0.06333  Uiso   1.00
C749   C     0.57205   0.75000   0.12500   0.06333  Uiso   1.00
C750   C     0.59909   0.75000   0.12500   0.06333  Uiso   1.00
Fe751  Fe    0.75000   0.75000   0.06250   0.06333  Uiso   1.00
Fe752  Fe    0.75000   0.75000   0.18750   0.06333  Uiso   1.00
C753   C     0.75000   0.80715   0.21180   0.06333  Uiso   1.00
C754   C     0.75000   0.86204   0.20820   0.06333  Uiso   1.00
N755   N     0.75000   0.78304   0.22639   0.06333  Uiso   1.00
H756   H     0.75000   0.81262   0.18042   0.06333  Uiso   1.00
H757   H     0.75000   0.85319   0.17964   0.06333  Uiso   1.00
C758   C     0.75000   0.94285   0.21180   0.06333  Uiso   1.00
C759   C     0.75000   0.88796   0.20820   0.06333  Uiso   1.00
N760   N     0.75000   0.96696   0.22639   0.06333  Uiso   1.00
H761   H     0.75000   0.93738   0.18042   0.06333  Uiso   1.00
H762   H     0.75000   0.89681   0.17964   0.06333  Uiso   1.00
C763   C     0.94285   0.75000   0.08680   0.06333  Uiso   1.00
C764   C     0.88796   0.75000   0.08320   0.06333  Uiso   1.00
N765   N     0.96696   0.75000   0.10139   0.06333  Uiso   1.00
H766   H     0.93738   0.75000   0.05542   0.06333  Uiso   1.00
H767   H     0.89681   0.75000   0.05464   0.06333  Uiso   1.00
C768   C     0.80715   0.75000   0.08680   0.06333  Uiso   1.00
C769   C     0.86204   0.75000   0.08320   0.06333  Uiso   1.00
N770   N     0.78304   0.75000   0.10139   0.06333  Uiso   1.00
H771   H     0.81262   0.75000   0.05542   0.06333  Uiso   1.00
H772   H     0.85319   0.75000   0.05464   0.06333  Uiso   1.00
C773   C     0.75000   0.80715   0.03820   0.06333  Uiso   1.00
C774   C     0.75000   0.86204   0.04180   0.06333  Uiso   1.00
N775   N     0.75000   0.78304   0.02361   0.06333  Uiso   1.00
H776   H     0.75000   0.81262   0.06958   0.06333  Uiso   1.00
H777   H     0.75000   0.85319   0.07036   0.06333  Uiso   1.00
C778   C     0.75000   0.94285   0.03820   0.06333  Uiso   1.00
C779   C     0.75000   0.88796   0.04180   0.06333  Uiso   1.00
N780   N     0.75000   0.96696   0.02361   0.06333  Uiso   1.00
H781   H     0.75000   0.93738   0.06958   0.06333  Uiso   1.00
H782   H     0.75000   0.89681   0.07036   0.06333  Uiso   1.00
C783   C     0.80715   0.75000   0.16320   0.06333  Uiso   1.00
C784   C     0.86204   0.75000   0.16680   0.06333  Uiso   1.00
N785   N     0.78304   0.75000   0.14861   0.06333  Uiso   1.00
H786   H     0.81262   0.75000   0.19458   0.06333  Uiso   1.00
H787   H     0.85319   0.75000   0.19536   0.06333  Uiso   1.00
C788   C     0.94285   0.75000   0.16320   0.06333  Uiso   1.00
C789   C     0.88796   0.75000   0.16680   0.06333  Uiso   1.00
N790   N     0.96696   0.75000   0.14861   0.06333  Uiso   1.00
H791   H     0.93738   0.75000   0.19458   0.06333  Uiso   1.00
H792   H     0.89681   0.75000   0.19536   0.06333  Uiso   1.00
C793   C     0.75000   0.82205   0.00000   0.06333  Uiso   1.00
C794   C     0.75000   0.84909   0.00000   0.06333  Uiso   1.00
C795   C     0.75000   0.92795   0.00000   0.06333  Uiso   1.00
C796   C     0.75000   0.90091   0.00000   0.06333  Uiso   1.00
C797   C     0.92795   0.75000   0.12500   0.06333  Uiso   1.00
C798   C     0.90091   0.75000   0.12500   0.06333  Uiso   1.00
C799   C     0.82205   0.75000   0.12500   0.06333  Uiso   1.00
C800   C     0.84909   0.75000   0.12500   0.06333  Uiso   1.00
Fe801  Fe    0.00000   0.00000   0.31250   0.06333  Uiso   1.00
Fe802  Fe    0.00000   0.00000   0.43750   0.06333  Uiso   1.00
C803   C     0.00000   0.05715   0.46180   0.06333  Uiso   1.00
C804   C     0.00000   0.11204   0.45820   0.06333  Uiso   1.00
N805   N     0.00000   0.03304   0.47639   0.06333  Uiso   1.00
H806   H     0.00000   0.06262   0.43042   0.06333  Uiso   1.00
H807   H     0.00000   0.10319   0.42964   0.06333  Uiso   1.00
C808   C     0.00000   0.19285   0.46180   0.06333  Uiso   1.00
C809   C     0.00000   0.13796   0.45820   0.06333  Uiso   1.00
N810   N     0.00000   0.21696   0.47639   0.06333  Uiso   1.00
H811   H     0.00000   0.18738   0.43042   0.06333  Uiso   1.00
H812   H     0.00000   0.14681   0.42964   0.06333  Uiso   1.00
C813   C     0.19285   0.00000   0.33680   0.06333  Uiso   1.00
C814   C     0.13796   0.00000   0.33320   0.06333  Uiso   1.00
N815   N     0.21696   0.00000   0.35139   0.06333  Uiso   1.00
H816   H     0.18738   0.00000   0.30542   0.06333  Uiso   1.00
H817   H     0.14681   0.00000   0.30464   0.06333  Uiso   1.00
C818   C     0.05715   0.00000   0.33680   0.06333  Uiso   1.00
C819   C     0.11204   0.00000   0.33320   0.06333  Uiso   1.00
N820   N     0.03304   0.00000   0.35139   0.06333  Uiso   1.00
H821   H     0.06262   0.00000   0.30542   0.06333  Uiso   1.00
H822   H     0.10319   0.00000   0.30464   0.06333  Uiso   1.00
C823   C     0.00000   0.05715   0.28820   0.06333  Uiso   1.00
C824   C     0.00000   0.11204   0.29180   0.06333  Uiso   1.00
N825   N     0.00000   0.03304   0.27361   0.06333  Uiso   1.00
H826   H     0.00000   0.06262   0.31958   0.06333  Uiso   1.00
H827   H     0.00000   0.10319   0.32036   0.06333  Uiso   1.00
C828   C     0.00000   0.19285   0.28820   0.06333  Uiso   1.00
C829   C     0.00000   0.13796   0.29180   0.06333  Uiso   1.00
N830   N     0.00000   0.21696   0.27361   0.06333  Uiso   1.00
H831   H     0.00000   0.18738   0.31958   0.06333  Uiso   1.00
H832   H     0.00000   0.14681   0.32036   0.06333  Uiso   1.00
C833   C     0.05715   0.00000   0.41320   0.06333  Uiso   1.00
C834   C     0.11204   0.00000   0.41680   0.06333  Uiso   1.00
N835   N     0.03304   0.00000   0.39861   0.06333  Uiso   1.00
H836   H     0.06262   0.00000   0.44458   0.06333  Uiso   1.00
H837   H     0.10319   0.00000   0.44536   0.06333  Uiso   1.00
C838   C     0.19285   0.00000   0.41320   0.06333  Uiso   1.00
C839   C     0.13796   0.00000   0.41680   0.06333  Uiso   1.00
N840   N     0.21696   0.00000   0.39861   0.06333  Uiso   1.00
H841   H     0.18738   0.00000   0.44458   0.06333  Uiso   1.00
H842   H     0.14681   0.00000   0.44536   0.06333  Uiso   1.00
C843   C     0.00000   0.07205   0.25000   0.06333  Uiso   1.00
C844   C     0.00000   0.09909   0.25000   0.06333  Uiso   1.00
C845   C     0.00000   0.17795   0.25000   0.06333  Uiso   1.00
C846   C     0.00000   0.15091   0.25000   0.06333  Uiso   1.00
C847   C     0.17795   0.00000   0.37500   0.06333  Uiso   1.00
C848   C     0.15091   0.00000   0.37500   0.06333  Uiso   1.00
C849   C     0.07205   0.00000   0.37500   0.06333  Uiso   1.00
C850   C     0.09909   0.00000   0.37500   0.06333  Uiso   1.00
Fe851  Fe    0.25000   0.00000   0.31250   0.06333  Uiso   1.00
Fe852  Fe    0.25000   0.00000   0.43750   0.06333  Uiso   1.00
C853   C     0.25000   0.05715   0.46180   0.06333  Uiso   1.00
C854   C     0.25000   0.11204   0.45820   0.06333  Uiso   1.00
N855   N     0.25000   0.03304   0.47639   0.06333  Uiso   1.00
H856   H     0.25000   0.06262   0.43042   0.06333  Uiso   1.00
H857   H     0.25000   0.10319   0.42964   0.06333  Uiso   1.00
C858   C     0.25000   0.19285   0.46180   0.06333  Uiso   1.00
C859   C     0.25000   0.13796   0.45820   0.06333  Uiso   1.00
N860   N     0.25000   0.21696   0.47639   0.06333  Uiso   1.00
H861   H     0.25000   0.18738   0.43042   0.06333  Uiso   1.00
H862   H     0.25000   0.14681   0.42964   0.06333  Uiso   1.00
C863   C     0.44285   0.00000   0.33680   0.06333  Uiso   1.00
C864   C     0.38796   0.00000   0.33320   0.06333  Uiso   1.00
N865   N     0.46696   0.00000   0.35139   0.06333  Uiso   1.00
H866   H     0.43738   0.00000   0.30542   0.06333  Uiso   1.00
H867   H     0.39681   0.00000   0.30464   0.06333  Uiso   1.00
C868   C     0.30715   0.00000   0.33680   0.06333  Uiso   1.00
C869   C     0.36204   0.00000   0.33320   0.06333  Uiso   1.00
N870   N     0.28304   0.00000   0.35139   0.06333  Uiso   1.00
H871   H     0.31262   0.00000   0.30542   0.06333  Uiso   1.00
H872   H     0.35319   0.00000   0.30464   0.06333  Uiso   1.00
C873   C     0.25000   0.05715   0.28820   0.06333  Uiso   1.00
C874   C     0.25000   0.11204   0.29180   0.06333  Uiso   1.00
N875   N     0.25000   0.03304   0.27361   0.06333  Uiso   1.00
H876   H     0.25000   0.06262   0.31958   0.06333  Uiso   1.00
H877   H     0.25000   0.10319   0.32036   0.06333  Uiso   1.00
C878   C     0.25000   0.19285   0.28820   0.06333  Uiso   1.00
C879   C     0.25000   0.13796   0.29180   0.06333  Uiso   1.00
N880   N     0.25000   0.21696   0.27361   0.06333  Uiso   1.00
H881   H     0.25000   0.18738   0.31958   0.06333  Uiso   1.00
H882   H     0.25000   0.14681   0.32036   0.06333  Uiso   1.00
C883   C     0.30715   0.00000   0.41320   0.06333  Uiso   1.00
C884   C     0.36204   0.00000   0.41680   0.06333  Uiso   1.00
N885   N     0.28304   0.00000   0.39861   0.06333  Uiso   1.00
H886   H     0.31262   0.00000   0.44458   0.06333  Uiso   1.00
H887   H     0.35319   0.00000   0.44536   0.06333  Uiso   1.00
C888   C     0.44285   0.00000   0.41320   0.06333  Uiso   1.00
C889   C     0.38796   0.00000   0.41680   0.06333  Uiso   1.00
N890   N     0.46696   0.00000   0.39861   0.06333  Uiso   1.00
H891   H     0.43738   0.00000   0.44458   0.06333  Uiso   1.00
H892   H     0.39681   0.00000   0.44536   0.06333  Uiso   1.00
C893   C     0.25000   0.07205   0.25000   0.06333  Uiso   1.00
C894   C     0.25000   0.09909   0.25000   0.06333  Uiso   1.00
C895   C     0.25000   0.17795   0.25000   0.06333  Uiso   1.00
C896   C     0.25000   0.15091   0.25000   0.06333  Uiso   1.00
C897   C     0.42795   0.00000   0.37500   0.06333  Uiso   1.00
C898   C     0.40091   0.00000   0.37500   0.06333  Uiso   1.00
C899   C     0.32205   0.00000   0.37500   0.06333  Uiso   1.00
C900   C     0.34909   0.00000   0.37500   0.06333  Uiso   1.00
Fe901  Fe    0.50000   0.00000   0.31250   0.06333  Uiso   1.00
Fe902  Fe    0.50000   0.00000   0.43750   0.06333  Uiso   1.00
C903   C     0.50000   0.05715   0.46180   0.06333  Uiso   1.00
C904   C     0.50000   0.11204   0.45820   0.06333  Uiso   1.00
N905   N     0.50000   0.03304   0.47639   0.06333  Uiso   1.00
H906   H     0.50000   0.06262   0.43042   0.06333  Uiso   1.00
H907   H     0.50000   0.10319   0.42964   0.06333  Uiso   1.00
C908   C     0.50000   0.19285   0.46180   0.06333  Uiso   1.00
C909   C     0.50000   0.13796   0.45820   0.06333  Uiso   1.00
N910   N     0.50000   0.21696   0.47639   0.06333  Uiso   1.00
H911   H     0.50000   0.18738   0.43042   0.06333  Uiso   1.00
H912   H     0.50000   0.14681   0.42964   0.06333  Uiso   1.00
C913   C     0.69285   0.00000   0.33680   0.06333  Uiso   1.00
C914   C     0.63796   0.00000   0.33320   0.06333  Uiso   1.00
N915   N     0.71696   0.00000   0.35139   0.06333  Uiso   1.00
H916   H     0.68738   0.00000   0.30542   0.06333  Uiso   1.00
H917   H     0.64681   0.00000   0.30464   0.06333  Uiso   1.00
C918   C     0.55715   0.00000   0.33680   0.06333  Uiso   1.00
C919   C     0.61204   0.00000   0.33320   0.06333  Uiso   1.00
N920   N     0.53304   0.00000   0.35139   0.06333  Uiso   1.00
H921   H     0.56262   0.00000   0.30542   0.06333  Uiso   1.00
H922   H     0.60319   0.00000   0.30464   0.06333  Uiso   1.00
C923   C     0.50000   0.05715   0.28820   0.06333  Uiso   1.00
C924   C     0.50000   0.11204   0.29180   0.06333  Uiso   1.00
N925   N     0.50000   0.03304   0.27361   0.06333  Uiso   1.00
H926   H     0.50000   0.06262   0.31958   0.06333  Uiso   1.00
H927   H     0.50000   0.10319   0.32036   0.06333  Uiso   1.00
C928   C     0.50000   0.19285   0.28820   0.06333  Uiso   1.00
C929   C     0.50000   0.13796   0.29180   0.06333  Uiso   1.00
N930   N     0.50000   0.21696   0.27361   0.06333  Uiso   1.00
H931   H     0.50000   0.18738   0.31958   0.06333  Uiso   1.00
H932   H     0.50000   0.14681   0.32036   0.06333  Uiso   1.00
C933   C     0.55715   0.00000   0.41320   0.06333  Uiso   1.00
C934   C     0.61204   0.00000   0.41680   0.06333  Uiso   1.00
N935   N     0.53304   0.00000   0.39861   0.06333  Uiso   1.00
H936   H     0.56262   0.00000   0.44458   0.06333  Uiso   1.00
H937   H     0.60319   0.00000   0.44536   0.06333  Uiso   1.00
C938   C     0.69285   0.00000   0.41320   0.06333  Uiso   1.00
C939   C     0.63796   0.00000   0.41680   0.06333  Uiso   1.00
N940   N     0.71696   0.00000   0.39861   0.06333  Uiso   1.00
H941   H     0.68738   0.00000   0.44458   0.06333  Uiso   1.00
H942   H     0.64681   0.00000   0.44536   0.06333  Uiso   1.00
C943   C     0.50000   0.07205   0.25000   0.06333  Uiso   1.00
C944   C     0.50000   0.09909   0.25000   0.06333  Uiso   1.00
C945   C     0.50000   0.17795   0.25000   0.06333  Uiso   1.00
C946   C     0.50000   0.15091   0.25000   0.06333  Uiso   1.00
C947   C     0.67795   0.00000   0.37500   0.06333  Uiso   1.00
C948   C     0.65091   0.00000   0.37500   0.06333  Uiso   1.00
C949   C     0.57205   0.00000   0.37500   0.06333  Uiso   1.00
C950   C     0.59909   0.00000   0.37500   0.06333  Uiso   1.00
Fe951  Fe    0.75000   0.00000   0.31250   0.06333  Uiso   1.00
Fe952  Fe    0.75000   0.00000   0.43750   0.06333  Uiso   1.00
C953   C     0.75000   0.05715   0.46180   0.06333  Uiso   1.00
C954   C     0.75000   0.11204   0.45820   0.06333  Uiso   1.00
N955   N     0.75000   0.03304   0.47639   0.06333  Uiso   1.00
H956   H     0.75000   0.06262   0.43042   0.06333  Uiso   1.00
H957   H     0.75000   0.10319   0.42964   0.06333  Uiso   1.00
C958   C     0.75000   0.19285   0.46180   0.06333  Uiso   1.00
C959   C     0.75000   0.13796   0.45820   0.06333  Uiso   1.00
N960   N     0.75000   0.21696   0.47639   0.06333  Uiso   1.00
H961   H     0.75000   0.18738   0.43042   0.06333  Uiso   1.00
H962   H     0.75000   0.14681   0.42964   0.06333  Uiso   1.00
C963   C     0.94285   0.00000   0.33680   0.06333  Uiso   1.00
C964   C     0.88796   0.00000   0.33320   0.06333  Uiso   1.00
N965   N     0.96696   0.00000   0.35139   0.06333  Uiso   1.00
H966   H     0.93738   0.00000   0.30542   0.06333  Uiso   1.00
H967   H     0.89681   0.00000   0.30464   0.06333  Uiso   1.00
C968   C     0.80715   0.00000   0.33680   0.06333  Uiso   1.00
C969   C     0.86204   0.00000   0.33320   0.06333  Uiso   1.00
N970   N     0.78304   0.00000   0.35139   0.06333  Uiso   1.00
H971   H     0.81262   0.00000   0.30542   0.06333  Uiso   1.00
H972   H     0.85319   0.00000   0.30464   0.06333  Uiso   1.00
C973   C     0.75000   0.05715   0.28820   0.06333  Uiso   1.00
C974   C     0.75000   0.11204   0.29180   0.06333  Uiso   1.00
N975   N     0.75000   0.03304   0.27361   0.06333  Uiso   1.00
H976   H     0.75000   0.06262   0.31958   0.06333  Uiso   1.00
H977   H     0.75000   0.10319   0.32036   0.06333  Uiso   1.00
C978   C     0.75000   0.19285   0.28820   0.06333  Uiso   1.00
C979   C     0.75000   0.13796   0.29180   0.06333  Uiso   1.00
N980   N     0.75000   0.21696   0.27361   0.06333  Uiso   1.00
H981   H     0.75000   0.18738   0.31958   0.06333  Uiso   1.00
H982   H     0.75000   0.14681   0.32036   0.06333  Uiso   1.00
C983   C     0.80715   0.00000   0.41320   0.06333  Uiso   1.00
C984   C     0.86204   0.00000   0.41680   0.06333  Uiso   1.00
N985   N     0.78304   0.00000   0.39861   0.06333  Uiso   1.00
H986   H     0.81262   0.00000   0.44458   0.06333  Uiso   1.00
H987   H     0.85319   0.00000   0.44536   0.06333  Uiso   1.00
C988   C     0.94285   0.00000   0.41320   0.06333  Uiso   1.00
C989   C     0.88796   0.00000   0.41680   0.06333  Uiso   1.00
N990   N     0.96696   0.00000   0.39861   0.06333  Uiso   1.00
H991   H     0.93738   0.00000   0.44458   0.06333  Uiso   1.00
H992   H     0.89681   0.00000   0.44536   0.06333  Uiso   1.00
C993   C     0.75000   0.07205   0.25000   0.06333  Uiso   1.00
C994   C     0.75000   0.09909   0.25000   0.06333  Uiso   1.00
C995   C     0.75000   0.17795   0.25000   0.06333  Uiso   1.00
C996   C     0.75000   0.15091   0.25000   0.06333  Uiso   1.00
C997   C     0.92795   0.00000   0.37500   0.06333  Uiso   1.00
C998   C     0.90091   0.00000   0.37500   0.06333  Uiso   1.00
C999   C     0.82205   0.00000   0.37500   0.06333  Uiso   1.00
C1000  C     0.84909   0.00000   0.37500   0.06333  Uiso   1.00
Fe1001 Fe    0.00000   0.25000   0.31250   0.06333  Uiso   1.00
Fe1002 Fe    0.00000   0.25000   0.43750   0.06333  Uiso   1.00
C1003  C     0.00000   0.30715   0.46180   0.06333  Uiso   1.00
C1004  C     0.00000   0.36204   0.45820   0.06333  Uiso   1.00
N1005  N     0.00000   0.28304   0.47639   0.06333  Uiso   1.00
H1006  H     0.00000   0.31262   0.43042   0.06333  Uiso   1.00
H1007  H     0.00000   0.35319   0.42964   0.06333  Uiso   1.00
C1008  C     0.00000   0.44285   0.46180   0.06333  Uiso   1.00
C1009  C     0.00000   0.38796   0.45820   0.06333  Uiso   1.00
N1010  N     0.00000   0.46696   0.47639   0.06333  Uiso   1.00
H1011  H     0.00000   0.43738   0.43042   0.06333  Uiso   1.00
H1012  H     0.00000   0.39681   0.42964   0.06333  Uiso   1.00
C1013  C     0.19285   0.25000   0.33680   0.06333  Uiso   1.00
C1014  C     0.13796   0.25000   0.33320   0.06333  Uiso   1.00
N1015  N     0.21696   0.25000   0.35139   0.06333  Uiso   1.00
H1016  H     0.18738   0.25000   0.30542   0.06333  Uiso   1.00
H1017  H     0.14681   0.25000   0.30464   0.06333  Uiso   1.00
C1018  C     0.05715   0.25000   0.33680   0.06333  Uiso   1.00
C1019  C     0.11204   0.25000   0.33320   0.06333  Uiso   1.00
N1020  N     0.03304   0.25000   0.35139   0.06333  Uiso   1.00
H1021  H     0.06262   0.25000   0.30542   0.06333  Uiso   1.00
H1022  H     0.10319   0.25000   0.30464   0.06333  Uiso   1.00
C1023  C     0.00000   0.30715   0.28820   0.06333  Uiso   1.00
C1024  C     0.00000   0.36204   0.29180   0.06333  Uiso   1.00
N1025  N     0.00000   0.28304   0.27361   0.06333  Uiso   1.00
H1026  H     0.00000   0.31262   0.31958   0.06333  Uiso   1.00
H1027  H     0.00000   0.35319   0.32036   0.06333  Uiso   1.00
C1028  C     0.00000   0.44285   0.28820   0.06333  Uiso   1.00
C1029  C     0.00000   0.38796   0.29180   0.06333  Uiso   1.00
N1030  N     0.00000   0.46696   0.27361   0.06333  Uiso   1.00
H1031  H     0.00000   0.43738   0.31958   0.06333  Uiso   1.00
H1032  H     0.00000   0.39681   0.32036   0.06333  Uiso   1.00
C1033  C     0.05715   0.25000   0.41320   0.06333  Uiso   1.00
C1034  C     0.11204   0.25000   0.41680   0.06333  Uiso   1.00
N1035  N     0.03304   0.25000   0.39861   0.06333  Uiso   1.00
H1036  H     0.06262   0.25000   0.44458   0.06333  Uiso   1.00
H1037  H     0.10319   0.25000   0.44536   0.06333  Uiso   1.00
C1038  C     0.19285   0.25000   0.41320   0.06333  Uiso   1.00
C1039  C     0.13796   0.25000   0.41680   0.06333  Uiso   1.00
N1040  N     0.21696   0.25000   0.39861   0.06333  Uiso   1.00
H1041  H     0.18738   0.25000   0.44458   0.06333  Uiso   1.00
H1042  H     0.14681   0.25000   0.44536   0.06333  Uiso   1.00
C1043  C     0.00000   0.32205   0.25000   0.06333  Uiso   1.00
C1044  C     0.00000   0.34909   0.25000   0.06333  Uiso   1.00
C1045  C     0.00000   0.42795   0.25000   0.06333  Uiso   1.00
C1046  C     0.00000   0.40091   0.25000   0.06333  Uiso   1.00
C1047  C     0.17795   0.25000   0.37500   0.06333  Uiso   1.00
C1048  C     0.15091   0.25000   0.37500   0.06333  Uiso   1.00
C1049  C     0.07205   0.25000   0.37500   0.06333  Uiso   1.00
C1050  C     0.09909   0.25000   0.37500   0.06333  Uiso   1.00
Fe1051 Fe    0.25000   0.25000   0.31250   0.06333  Uiso   1.00
Fe1052 Fe    0.25000   0.25000   0.43750   0.06333  Uiso   1.00
C1053  C     0.25000   0.30715   0.46180   0.06333  Uiso   1.00
C1054  C     0.25000   0.36204   0.45820   0.06333  Uiso   1.00
N1055  N     0.25000   0.28304   0.47639   0.06333  Uiso   1.00
H1056  H     0.25000   0.31262   0.43042   0.06333  Uiso   1.00
H1057  H     0.25000   0.35319   0.42964   0.06333  Uiso   1.00
C1058  C     0.25000   0.44285   0.46180   0.06333  Uiso   1.00
C1059  C     0.25000   0.38796   0.45820   0.06333  Uiso   1.00
N1060  N     0.25000   0.46696   0.47639   0.06333  Uiso   1.00
H1061  H     0.25000   0.43738   0.43042   0.06333  Uiso   1.00
H1062  H     0.25000   0.39681   0.42964   0.06333  Uiso   1.00
C1063  C     0.44285   0.25000   0.33680   0.06333  Uiso   1.00
C1064  C     0.38796   0.25000   0.33320   0.06333  Uiso   1.00
N1065  N     0.46696   0.25000   0.35139   0.06333  Uiso   1.00
H1066  H     0.43738   0.25000   0.30542   0.06333  Uiso   1.00
H1067  H     0.39681   0.25000   0.30464   0.06333  Uiso   1.00
C1068  C     0.30715   0.25000   0.33680   0.06333  Uiso   1.00
C1069  C     0.36204   0.25000   0.33320   0.06333  Uiso   1.00
N1070  N     0.28304   0.25000   0.35139   0.06333  Uiso   1.00
H1071  H     0.31262   0.25000   0.30542   0.06333  Uiso   1.00
H1072  H     0.35319   0.25000   0.30464   0.06333  Uiso   1.00
C1073  C     0.25000   0.30715   0.28820   0.06333  Uiso   1.00
C1074  C     0.25000   0.36204   0.29180   0.06333  Uiso   1.00
N1075  N     0.25000   0.28304   0.27361   0.06333  Uiso   1.00
H1076  H     0.25000   0.31262   0.31958   0.06333  Uiso   1.00
H1077  H     0.25000   0.35319   0.32036   0.06333  Uiso   1.00
C1078  C     0.25000   0.44285   0.28820   0.06333  Uiso   1.00
C1079  C     0.25000   0.38796   0.29180   0.06333  Uiso   1.00
N1080  N     0.25000   0.46696   0.27361   0.06333  Uiso   1.00
H1081  H     0.25000   0.43738   0.31958   0.06333  Uiso   1.00
H1082  H     0.25000   0.39681   0.32036   0.06333  Uiso   1.00
C1083  C     0.30715   0.25000   0.41320   0.06333  Uiso   1.00
C1084  C     0.36204   0.25000   0.41680   0.06333  Uiso   1.00
N1085  N     0.28304   0.25000   0.39861   0.06333  Uiso   1.00
H1086  H     0.31262   0.25000   0.44458   0.06333  Uiso   1.00
H1087  H     0.35319   0.25000   0.44536   0.06333  Uiso   1.00
C1088  C     0.44285   0.25000   0.41320   0.06333  Uiso   1.00
C1089  C     0.38796   0.25000   0.41680   0.06333  Uiso   1.00
N1090  N     0.46696   0.25000   0.39861   0.06333  Uiso   1.00
H1091  H     0.43738   0.25000   0.44458   0.06333  Uiso   1.00
H1092  H     0.39681   0.25000   0.44536   0.06333  Uiso   1.00
C1093  C     0.25000   0.32205   0.25000   0.06333  Uiso   1.00
C1094  C     0.25000   0.34909   0.25000   0.06333  Uiso   1.00
C1095  C     0.25000   0.42795   0.25000   0.06333  Uiso   1.00
C1096  C     0.25000   0.40091   0.25000   0.06333  Uiso   1.00
C1097  C     0.42795   0.25000   0.37500   0.06333  Uiso   1.00
C1098  C     0.40091   0.25000   0.37500   0.06333  Uiso   1.00
C1099  C     0.32205   0.25000   0.37500   0.06333  Uiso   1.00
C1100  C     0.34909   0.25000   0.37500   0.06333  Uiso   1.00
Fe1101 Fe    0.50000   0.25000   0.31250   0.06333  Uiso   1.00
Fe1102 Fe    0.50000   0.25000   0.43750   0.06333  Uiso   1.00
C1103  C     0.50000   0.30715   0.46180   0.06333  Uiso   1.00
C1104  C     0.50000   0.36204   0.45820   0.06333  Uiso   1.00
N1105  N     0.50000   0.28304   0.47639   0.06333  Uiso   1.00
H1106  H     0.50000   0.31262   0.43042   0.06333  Uiso   1.00
H1107  H     0.50000   0.35319   0.42964   0.06333  Uiso   1.00
C1108  C     0.50000   0.44285   0.46180   0.06333  Uiso   1.00
C1109  C     0.50000   0.38796   0.45820   0.06333  Uiso   1.00
N1110  N     0.50000   0.46696   0.47639   0.06333  Uiso   1.00
H1111  H     0.50000   0.43738   0.43042   0.06333  Uiso   1.00
H1112  H     0.50000   0.39681   0.42964   0.06333  Uiso   1.00
C1113  C     0.69285   0.25000   0.33680   0.06333  Uiso   1.00
C1114  C     0.63796   0.25000   0.33320   0.06333  Uiso   1.00
N1115  N     0.71696   0.25000   0.35139   0.06333  Uiso   1.00
H1116  H     0.68738   0.25000   0.30542   0.06333  Uiso   1.00
H1117  H     0.64681   0.25000   0.30464   0.06333  Uiso   1.00
C1118  C     0.55715   0.25000   0.33680   0.06333  Uiso   1.00
C1119  C     0.61204   0.25000   0.33320   0.06333  Uiso   1.00
N1120  N     0.53304   0.25000   0.35139   0.06333  Uiso   1.00
H1121  H     0.56262   0.25000   0.30542   0.06333  Uiso   1.00
H1122  H     0.60319   0.25000   0.30464   0.06333  Uiso   1.00
C1123  C     0.50000   0.30715   0.28820   0.06333  Uiso   1.00
C1124  C     0.50000   0.36204   0.29180   0.06333  Uiso   1.00
N1125  N     0.50000   0.28304   0.27361   0.06333  Uiso   1.00
H1126  H     0.50000   0.31262   0.31958   0.06333  Uiso   1.00
H1127  H     0.50000   0.35319   0.32036   0.06333  Uiso   1.00
C1128  C     0.50000   0.44285   0.28820   0.06333  Uiso   1.00
C1129  C     0.50000   0.38796   0.29180   0.06333  Uiso   1.00
N1130  N     0.50000   0.46696   0.27361   0.06333  Uiso   1.00
H1131  H     0.50000   0.43738   0.31958   0.06333  Uiso   1.00
H1132  H     0.50000   0.39681   0.32036   0.06333  Uiso   1.00
C1133  C     0.55715   0.25000   0.41320   0.06333  Uiso   1.00
C1134  C     0.61204   0.25000   0.41680   0.06333  Uiso   1.00
N1135  N     0.53304   0.25000   0.39861   0.06333  Uiso   1.00
H1136  H     0.56262   0.25000   0.44458   0.06333  Uiso   1.00
H1137  H     0.60319   0.25000   0.44536   0.06333  Uiso   1.00
C1138  C     0.69285   0.25000   0.41320   0.06333  Uiso   1.00
C1139  C     0.63796   0.25000   0.41680   0.06333  Uiso   1.00
N1140  N     0.71696   0.25000   0.39861   0.06333  Uiso   1.00
H1141  H     0.68738   0.25000   0.44458   0.06333  Uiso   1.00
H1142  H     0.64681   0.25000   0.44536   0.06333  Uiso   1.00
C1143  C     0.50000   0.32205   0.25000   0.06333  Uiso   1.00
C1144  C     0.50000   0.34909   0.25000   0.06333  Uiso   1.00
C1145  C     0.50000   0.42795   0.25000   0.06333  Uiso   1.00
C1146  C     0.50000   0.40091   0.25000   0.06333  Uiso   1.00
C1147  C     0.67795   0.25000   0.37500   0.06333  Uiso   1.00
C1148  C     0.65091   0.25000   0.37500   0.06333  Uiso   1.00
C1149  C     0.57205   0.25000   0.37500   0.06333  Uiso   1.00
C1150  C     0.59909   0.25000   0.37500   0.06333  Uiso   1.00
Fe1151 Fe    0.75000   0.25000   0.31250   0.06333  Uiso   1.00
Fe1152 Fe    0.75000   0.25000   0.43750   0.06333  Uiso   1.00
C1153  C     0.75000   0.30715   0.46180   0.06333  Uiso   1.00
C1154  C     0.75000   0.36204   0.45820   0.06333  Uiso   1.00
N1155  N     0.75000   0.28304   0.47639   0.06333  Uiso   1.00
H1156  H     0.75000   0.31262   0.43042   0.06333  Uiso   1.00
H1157  H     0.75000   0.35319   0.42964   0.06333  Uiso   1.00
C1158  C     0.75000   0.44285   0.46180   0.06333  Uiso   1.00
C1159  C     0.75000   0.38796   0.45820   0.06333  Uiso   1.00
N1160  N     0.75000   0.46696   0.47639   0.06333  Uiso   1.00
H1161  H     0.75000   0.43738   0.43042   0.06333  Uiso   1.00
H1162  H     0.75000   0.39681   0.42964   0.06333  Uiso   1.00
C1163  C     0.94285   0.25000   0.33680   0.06333  Uiso   1.00
C1164  C     0.88796   0.25000   0.33320   0.06333  Uiso   1.00
N1165  N     0.96696   0.25000   0.35139   0.06333  Uiso   1.00
H1166  H     0.93738   0.25000   0.30542   0.06333  Uiso   1.00
H1167  H     0.89681   0.25000   0.30464   0.06333  Uiso   1.00
C1168  C     0.80715   0.25000   0.33680   0.06333  Uiso   1.00
C1169  C     0.86204   0.25000   0.33320   0.06333  Uiso   1.00
N1170  N     0.78304   0.25000   0.35139   0.06333  Uiso   1.00
H1171  H     0.81262   0.25000   0.30542   0.06333  Uiso   1.00
H1172  H     0.85319   0.25000   0.30464   0.06333  Uiso   1.00
C1173  C     0.75000   0.30715   0.28820   0.06333  Uiso   1.00
C1174  C     0.75000   0.36204   0.29180   0.06333  Uiso   1.00
N1175  N     0.75000   0.28304   0.27361   0.06333  Uiso   1.00
H1176  H     0.75000   0.31262   0.31958   0.06333  Uiso   1.00
H1177  H     0.75000   0.35319   0.32036   0.06333  Uiso   1.00
C1178  C     0.75000   0.44285   0.28820   0.06333  Uiso   1.00
C1179  C     0.75000   0.38796   0.29180   0.06333  Uiso   1.00
N1180  N     0.75000   0.46696   0.27361   0.06333  Uiso   1.00
H1181  H     0.75000   0.43738   0.31958   0.06333  Uiso   1.00
H1182  H     0.75000   0.39681   0.32036   0.06333  Uiso   1.00
C1183  C     0.80715   0.25000   0.41320   0.06333  Uiso   1.00
C1184  C     0.86204   0.25000   0.41680   0.06333  Uiso   1.00
N1185  N     0.78304   0.25000   0.39861   0.06333  Uiso   1.00
H1186  H     0.81262   0.25000   0.44458   0.06333  Uiso   1.00
H1187  H     0.85319   0.25000   0.44536   0.06333  Uiso   1.00
C1188  C     0.94285   0.25000   0.41320   0.06333  Uiso   1.00
C1189  C     0.88796   0.25000   0.41680   0.06333  Uiso   1.00
N1190  N     0.96696   0.25000   0.39861   0.06333  Uiso   1.00
H1191  H     0.93738   0.25000   0.44458   0.06333  Uiso   1.00
H1192  H     0.89681   0.25000   0.44536   0.06333  Uiso   1.00
C1193  C     0.75000   0.32205   0.25000   0.06333  Uiso   1.00
C1194  C     0.75000   0.34909   0.25000   0.06333  Uiso   1.00
C1195  C     0.75000   0.42795   0.25000   0.06333  Uiso   1.00
C1196  C     0.75000   0.40091   0.25000   0.06333  Uiso   1.00
C1197  C     0.92795   0.25000   0.37500   0.06333  Uiso   1.00
C1198  C     0.90091   0.25000   0.37500   0.06333  Uiso   1.00
C1199  C     0.82205   0.25000   0.37500   0.06333  Uiso   1.00
C1200  C     0.84909   0.25000   0.37500   0.06333  Uiso   1.00
Fe1201 Fe    0.00000   0.50000   0.31250   0.06333  Uiso   1.00
Fe1202 Fe    0.00000   0.50000   0.43750   0.06333  Uiso   1.00
C1203  C     0.00000   0.55715   0.46180   0.06333  Uiso   1.00
C1204  C     0.00000   0.61204   0.45820   0.06333  Uiso   1.00
N1205  N     0.00000   0.53304   0.47639   0.06333  Uiso   1.00
H1206  H     0.00000   0.56262   0.43042   0.06333  Uiso   1.00
H1207  H     0.00000   0.60319   0.42964   0.06333  Uiso   1.00
C1208  C     0.00000   0.69285   0.46180   0.06333  Uiso   1.00
C1209  C     0.00000   0.63796   0.45820   0.06333  Uiso   1.00
N1210  N     0.00000   0.71696   0.47639   0.06333  Uiso   1.00
H1211  H     0.00000   0.68738   0.43042   0.06333  Uiso   1.00
H1212  H     0.00000   0.64681   0.42964   0.06333  Uiso   1.00
C1213  C     0.19285   0.50000   0.33680   0.06333  Uiso   1.00
C1214  C     0.13796   0.50000   0.33320   0.06333  Uiso   1.00
N1215  N     0.21696   0.50000   0.35139   0.06333  Uiso   1.00
H1216  H     0.18738   0.50000   0.30542   0.06333  Uiso   1.00
H1217  H     0.14681   0.50000   0.30464   0.06333  Uiso   1.00
C1218  C     0.05715   0.50000   0.33680   0.06333  Uiso   1.00
C1219  C     0.11204   0.50000   0.33320   0.06333  Uiso   1.00
N1220  N     0.03304   0.50000   0.35139   0.06333  Uiso   1.00
H1221  H     0.06262   0.50000   0.30542   0.06333  Uiso   1.00
H1222  H     0.10319   0.50000   0.30464   0.06333  Uiso   1.00
C1223  C     0.00000   0.55715   0.28820   0.06333  Uiso   1.00
C1224  C     0.00000   0.61204   0.29180   0.06333  Uiso   1.00
N1225  N     0.00000   0.53304   0.27361   0.06333  Uiso   1.00
H1226  H     0.00000   0.56262   0.31958   0.06333  Uiso   1.00
H1227  H     0.00000   0.60319   0.32036   0.06333  Uiso   1.00
C1228  C     0.00000   0.69285   0.28820   0.06333  Uiso   1.00
C1229  C     0.00000   0.63796   0.29180   0.06333  Uiso   1.00
N1230  N     0.00000   0.71696   0.27361   0.06333  Uiso   1.00
H1231  H     0.00000   0.68738   0.31958   0.06333  Uiso   1.00
H1232  H     0.00000   0.64681   0.32036   0.06333  Uiso   1.00
C1233  C     0.05715   0.50000   0.41320   0.06333  Uiso   1.00
C1234  C     0.11204   0.50000   0.41680   0.06333  Uiso   1.00
N1235  N     0.03304   0.50000   0.39861   0.06333  Uiso   1.00
H1236  H     0.06262   0.50000   0.44458   0.06333  Uiso   1.00
H1237  H     0.10319   0.50000   0.44536   0.06333  Uiso   1.00
C1238  C     0.19285   0.50000   0.41320   0.06333  Uiso   1.00
C1239  C     0.13796   0.50000   0.41680   0.06333  Uiso   1.00
N1240  N     0.21696   0.50000   0.39861   0.06333  Uiso   1.00
H1241  H     0.18738   0.50000   0.44458   0.06333  Uiso   1.00
H1242  H     0.14681   0.50000   0.44536   0.06333  Uiso   1.00
C1243  C     0.00000   0.57205   0.25000   0.06333  Uiso   1.00
C1244  C     0.00000   0.59909   0.25000   0.06333  Uiso   1.00
C1245  C     0.00000   0.67795   0.25000   0.06333  Uiso   1.00
C1246  C     0.00000   0.65091   0.25000   0.06333  Uiso   1.00
C1247  C     0.17795   0.50000   0.37500   0.06333  Uiso   1.00
C1248  C     0.15091   0.50000   0.37500   0.06333  Uiso   1.00
C1249  C     0.07205   0.50000   0.37500   0.06333  Uiso   1.00
C1250  C     0.09909   0.50000   0.37500   0.06333  Uiso   1.00
Fe1251 Fe    0.25000   0.50000   0.31250   0.06333  Uiso   1.00
Fe1252 Fe    0.25000   0.50000   0.43750   0.06333  Uiso   1.00
C1253  C     0.25000   0.55715   0.46180   0.06333  Uiso   1.00
C1254  C     0.25000   0.61204   0.45820   0.06333  Uiso   1.00
N1255  N     0.25000   0.53304   0.47639   0.06333  Uiso   1.00
H1256  H     0.25000   0.56262   0.43042   0.06333  Uiso   1.00
H1257  H     0.25000   0.60319   0.42964   0.06333  Uiso   1.00
C1258  C     0.25000   0.69285   0.46180   0.06333  Uiso   1.00
C1259  C     0.25000   0.63796   0.45820   0.06333  Uiso   1.00
N1260  N     0.25000   0.71696   0.47639   0.06333  Uiso   1.00
H1261  H     0.25000   0.68738   0.43042   0.06333  Uiso   1.00
H1262  H     0.25000   0.64681   0.42964   0.06333  Uiso   1.00
C1263  C     0.44285   0.50000   0.33680   0.06333  Uiso   1.00
C1264  C     0.38796   0.50000   0.33320   0.06333  Uiso   1.00
N1265  N     0.46696   0.50000   0.35139   0.06333  Uiso   1.00
H1266  H     0.43738   0.50000   0.30542   0.06333  Uiso   1.00
H1267  H     0.39681   0.50000   0.30464   0.06333  Uiso   1.00
C1268  C     0.30715   0.50000   0.33680   0.06333  Uiso   1.00
C1269  C     0.36204   0.50000   0.33320   0.06333  Uiso   1.00
N1270  N     0.28304   0.50000   0.35139   0.06333  Uiso   1.00
H1271  H     0.31262   0.50000   0.30542   0.06333  Uiso   1.00
H1272  H     0.35319   0.50000   0.30464   0.06333  Uiso   1.00
C1273  C     0.25000   0.55715   0.28820   0.06333  Uiso   1.00
C1274  C     0.25000   0.61204   0.29180   0.06333  Uiso   1.00
N1275  N     0.25000   0.53304   0.27361   0.06333  Uiso   1.00
H1276  H     0.25000   0.56262   0.31958   0.06333  Uiso   1.00
H1277  H     0.25000   0.60319   0.32036   0.06333  Uiso   1.00
C1278  C     0.25000   0.69285   0.28820   0.06333  Uiso   1.00
C1279  C     0.25000   0.63796   0.29180   0.06333  Uiso   1.00
N1280  N     0.25000   0.71696   0.27361   0.06333  Uiso   1.00
H1281  H     0.25000   0.68738   0.31958   0.06333  Uiso   1.00
H1282  H     0.25000   0.64681   0.32036   0.06333  Uiso   1.00
C1283  C     0.30715   0.50000   0.41320   0.06333  Uiso   1.00
C1284  C     0.36204   0.50000   0.41680   0.06333  Uiso   1.00
N1285  N     0.28304   0.50000   0.39861   0.06333  Uiso   1.00
H1286  H     0.31262   0.50000   0.44458   0.06333  Uiso   1.00
H1287  H     0.35319   0.50000   0.44536   0.06333  Uiso   1.00
C1288  C     0.44285   0.50000   0.41320   0.06333  Uiso   1.00
C1289  C     0.38796   0.50000   0.41680   0.06333  Uiso   1.00
N1290  N     0.46696   0.50000   0.39861   0.06333  Uiso   1.00
H1291  H     0.43738   0.50000   0.44458   0.06333  Uiso   1.00
H1292  H     0.39681   0.50000   0.44536   0.06333  Uiso   1.00
C1293  C     0.25000   0.57205   0.25000   0.06333  Uiso   1.00
C1294  C     0.25000   0.59909   0.25000   0.06333  Uiso   1.00
C1295  C     0.25000   0.67795   0.25000   0.06333  Uiso   1.00
C1296  C     0.25000   0.65091   0.25000   0.06333  Uiso   1.00
C1297  C     0.42795   0.50000   0.37500   0.06333  Uiso   1.00
C1298  C     0.40091   0.50000   0.37500   0.06333  Uiso   1.00
C1299  C     0.32205   0.50000   0.37500   0.06333  Uiso   1.00
C1300  C     0.34909   0.50000   0.37500   0.06333  Uiso   1.00
Fe1301 Fe    0.50000   0.50000   0.31250   0.06333  Uiso   1.00
Fe1302 Fe    0.50000   0.50000   0.43750   0.06333  Uiso   1.00
C1303  C     0.50000   0.55715   0.46180   0.06333  Uiso   1.00
C1304  C     0.50000   0.61204   0.45820   0.06333  Uiso   1.00
N1305  N     0.50000   0.53304   0.47639   0.06333  Uiso   1.00
H1306  H     0.50000   0.56262   0.43042   0.06333  Uiso   1.00
H1307  H     0.50000   0.60319   0.42964   0.06333  Uiso   1.00
C1308  C     0.50000   0.69285   0.46180   0.06333  Uiso   1.00
C1309  C     0.50000   0.63796   0.45820   0.06333  Uiso   1.00
N1310  N     0.50000   0.71696   0.47639   0.06333  Uiso   1.00
H1311  H     0.50000   0.68738   0.43042   0.06333  Uiso   1.00
H1312  H     0.50000   0.64681   0.42964   0.06333  Uiso   1.00
C1313  C     0.69285   0.50000   0.33680   0.06333  Uiso   1.00
C1314  C     0.63796   0.50000   0.33320   0.06333  Uiso   1.00
N1315  N     0.71696   0.50000   0.35139   0.06333  Uiso   1.00
H1316  H     0.68738   0.50000   0.30542   0.06333  Uiso   1.00
H1317  H     0.64681   0.50000   0.30464   0.06333  Uiso   1.00
C1318  C     0.55715   0.50000   0.33680   0.06333  Uiso   1.00
C1319  C     0.61204   0.50000   0.33320   0.06333  Uiso   1.00
N1320  N     0.53304   0.50000   0.35139   0.06333  Uiso   1.00
H1321  H     0.56262   0.50000   0.30542   0.06333  Uiso   1.00
H1322  H     0.60319   0.50000   0.30464   0.06333  Uiso   1.00
C1323  C     0.50000   0.55715   0.28820   0.06333  Uiso   1.00
C1324  C     0.50000   0.61204   0.29180   0.06333  Uiso   1.00
N1325  N     0.50000   0.53304   0.27361   0.06333  Uiso   1.00
H1326  H     0.50000   0.56262   0.31958   0.06333  Uiso   1.00
H1327  H     0.50000   0.60319   0.32036   0.06333  Uiso   1.00
C1328  C     0.50000   0.69285   0.28820   0.06333  Uiso   1.00
C1329  C     0.50000   0.63796   0.29180   0.06333  Uiso   1.00
N1330  N     0.50000   0.71696   0.27361   0.06333  Uiso   1.00
H1331  H     0.50000   0.68738   0.31958   0.06333  Uiso   1.00
H1332  H     0.50000   0.64681   0.32036   0.06333  Uiso   1.00
C1333  C     0.55715   0.50000   0.41320   0.06333  Uiso   1.00
C1334  C     0.61204   0.50000   0.41680   0.06333  Uiso   1.00
N1335  N     0.53304   0.50000   0.39861   0.06333  Uiso   1.00
H1336  H     0.56262   0.50000   0.44458   0.06333  Uiso   1.00
H1337  H     0.60319   0.50000   0.44536   0.06333  Uiso   1.00
C1338  C     0.69285   0.50000   0.41320   0.06333  Uiso   1.00
C1339  C     0.63796   0.50000   0.41680   0.06333  Uiso   1.00
N1340  N     0.71696   0.50000   0.39861   0.06333  Uiso   1.00
H1341  H     0.68738   0.50000   0.44458   0.06333  Uiso   1.00
H1342  H     0.64681   0.50000   0.44536   0.06333  Uiso   1.00
C1343  C     0.50000   0.57205   0.25000   0.06333  Uiso   1.00
C1344  C     0.50000   0.59909   0.25000   0.06333  Uiso   1.00
C1345  C     0.50000   0.67795   0.25000   0.06333  Uiso   1.00
C1346  C     0.50000   0.65091   0.25000   0.06333  Uiso   1.00
C1347  C     0.67795   0.50000   0.37500   0.06333  Uiso   1.00
C1348  C     0.65091   0.50000   0.37500   0.06333  Uiso   1.00
C1349  C     0.57205   0.50000   0.37500   0.06333  Uiso   1.00
C1350  C     0.59909   0.50000   0.37500   0.06333  Uiso   1.00
Fe1351 Fe    0.75000   0.50000   0.31250   0.06333  Uiso   1.00
Fe1352 Fe    0.75000   0.50000   0.43750   0.06333  Uiso   1.00
C1353  C     0.75000   0.55715   0.46180   0.06333  Uiso   1.00
C1354  C     0.75000   0.61204   0.45820   0.06333  Uiso   1.00
N1355  N     0.75000   0.53304   0.47639   0.06333  Uiso   1.00
H1356  H     0.75000   0.56262   0.43042   0.06333  Uiso   1.00
H1357  H     0.75000   0.60319   0.42964   0.06333  Uiso   1.00
C1358  C     0.75000   0.69285   0.46180   0.06333  Uiso   1.00
C1359  C     0.75000   0.63796   0.45820   0.06333  Uiso   1.00
N1360  N     0.75000   0.71696   0.47639   0.06333  Uiso   1.00
H1361  H     0.75000   0.68738   0.43042   0.06333  Uiso   1.00
H1362  H     0.75000   0.64681   0.42964   0.06333  Uiso   1.00
C1363  C     0.94285   0.50000   0.33680   0.06333  Uiso   1.00
C1364  C     0.88796   0.50000   0.33320   0.06333  Uiso   1.00
N1365  N     0.96696   0.50000   0.35139   0.06333  Uiso   1.00
H1366  H     0.93738   0.50000   0.30542   0.06333  Uiso   1.00
H1367  H     0.89681   0.50000   0.30464   0.06333  Uiso   1.00
C1368  C     0.80715   0.50000   0.33680   0.06333  Uiso   1.00
C1369  C     0.86204   0.50000   0.33320   0.06333  Uiso   1.00
N1370  N     0.78304   0.50000   0.35139   0.06333  Uiso   1.00
H1371  H     0.81262   0.50000   0.30542   0.06333  Uiso   1.00
H1372  H     0.85319   0.50000   0.30464   0.06333  Uiso   1.00
C1373  C     0.75000   0.55715   0.28820   0.06333  Uiso   1.00
C1374  C     0.75000   0.61204   0.29180   0.06333  Uiso   1.00
N1375  N     0.75000   0.53304   0.27361   0.06333  Uiso   1.00
H1376  H     0.75000   0.56262   0.31958   0.06333  Uiso   1.00
H1377  H     0.75000   0.60319   0.32036   0.06333  Uiso   1.00
C1378  C     0.75000   0.69285   0.28820   0.06333  Uiso   1.00
C1379  C     0.75000   0.63796   0.29180   0.06333  Uiso   1.00
N1380  N     0.75000   0.71696   0.27361   0.06333  Uiso   1.00
H1381  H     0.75000   0.68738   0.31958   0.06333  Uiso   1.00
H1382  H     0.75000   0.64681   0.32036   0.06333  Uiso   1.00
C1383  C     0.80715   0.50000   0.41320   0.06333  Uiso   1.00
C1384  C     0.86204   0.50000   0.41680   0.06333  Uiso   1.00
N1385  N     0.78304   0.50000   0.39861   0.06333  Uiso   1.00
H1386  H     0.81262   0.50000   0.44458   0.06333  Uiso   1.00
H1387  H     0.85319   0.50000   0.44536   0.06333  Uiso   1.00
C1388  C     0.94285   0.50000   0.41320   0.06333  Uiso   1.00
C1389  C     0.88796   0.50000   0.41680   0.06333  Uiso   1.00
N1390  N     0.96696   0.50000   0.39861   0.06333  Uiso   1.00
H1391  H     0.93738   0.50000   0.44458   0.06333  Uiso   1.00
H1392  H     0.89681   0.50000   0.44536   0.06333  Uiso   1.00
C1393  C     0.75000   0.57205   0.25000   0.06333  Uiso   1.00
C1394  C     0.75000   0.59909   0.25000   0.06333  Uiso   1.00
C1395  C     0.75000   0.67795   0.25000   0.06333  Uiso   1.00
C1396  C     0.75000   0.65091   0.25000   0.06333  Uiso   1.00
C1397  C     0.92795   0.50000   0.37500   0.06333  Uiso   1.00
C1398  C     0.90091   0.50000   0.37500   0.06333  Uiso   1.00
C1399  C     0.82205   0.50000   0.37500   0.06333  Uiso   1.00
C1400  C     0.84909   0.50000   0.37500   0.06333  Uiso   1.00
Fe1401 Fe    0.00000   0.75000   0.31250   0.06333  Uiso   1.00
Fe1402 Fe    0.00000   0.75000   0.43750   0.06333  Uiso   1.00
C1403  C     0.00000   0.80715   0.46180   0.06333  Uiso   1.00
C1404  C     0.00000   0.86204   0.45820   0.06333  Uiso   1.00
N1405  N     0.00000   0.78304   0.47639   0.06333  Uiso   1.00
H1406  H     0.00000   0.81262   0.43042   0.06333  Uiso   1.00
H1407  H     0.00000   0.85319   0.42964   0.06333  Uiso   1.00
C1408  C     0.00000   0.94285   0.46180   0.06333  Uiso   1.00
C1409  C     0.00000   0.88796   0.45820   0.06333  Uiso   1.00
N1410  N     0.00000   0.96696   0.47639   0.06333  Uiso   1.00
H1411  H     0.00000   0.93738   0.43042   0.06333  Uiso   1.00
H1412  H     0.00000   0.89681   0.42964   0.06333  Uiso   1.00
C1413  C     0.19285   0.75000   0.33680   0.06333  Uiso   1.00
C1414  C     0.13796   0.75000   0.33320   0.06333  Uiso   1.00
N1415  N     0.21696   0.75000   0.35139   0.06333  Uiso   1.00
H1416  H     0.18738   0.75000   0.30542   0.06333  Uiso   1.00
H1417  H     0.14681   0.75000   0.30464   0.06333  Uiso   1.00
C1418  C     0.05715   0.75000   0.33680   0.06333  Uiso   1.00
C1419  C     0.11204   0.75000   0.33320   0.06333  Uiso   1.00
N1420  N     0.03304   0.75000   0.35139   0.06333  Uiso   1.00
H1421  H     0.06262   0.75000   0.30542   0.06333  Uiso   1.00
H1422  H     0.10319   0.75000   0.30464   0.06333  Uiso   1.00
C1423  C     0.00000   0.80715   0.28820   0.06333  Uiso   1.00
C1424  C     0.00000   0.86204   0.29180   0.06333  Uiso   1.00
N1425  N     0.00000   0.78304   0.27361   0.06333  Uiso   1.00
H1426  H     0.00000   0.81262   0.31958   0.06333  Uiso   1.00
H1427  H     0.00000   0.85319   0.32036   0.06333  Uiso   1.00
C1428  C     0.00000   0.94285   0.28820   0.06333  Uiso   1.00
C1429  C     0.00000   0.88796   0.29180   0.06333  Uiso   1.00
N1430  N     0.00000   0.96696   0.27361   0.06333  Uiso   1.00
H1431  H     0.00000   0.93738   0.31958   0.06333  Uiso   1.00
H1432  H     0.00000   0.89681   0.32036   0.06333  Uiso   1.00
C1433  C     0.05715   0.75000   0.41320   0.06333  Uiso   1.00
C1434  C     0.11204   0.75000   0.41680   0.06333  Uiso   1.00
N1435  N     0.03304   0.75000   0.39861   0.06333  Uiso   1.00
H1436  H     0.06262   0.75000   0.44458   0.06333  Uiso   1.00
H1437  H     0.10319   0.75000   0.44536   0.06333  Uiso   1.00
C1438  C     0.19285   0.75000   0.41320   0.06333  Uiso   1.00
C1439  C     0.13796   0.75000   0.41680   0.06333  Uiso   1.00
N1440  N     0.21696   0.75000   0.39861   0.06333  Uiso   1.00
H1441  H     0.18738   0.75000   0.44458   0.06333  Uiso   1.00
H1442  H     0.14681   0.75000   0.44536   0.06333  Uiso   1.00
C1443  C     0.00000   0.82205   0.25000   0.06333  Uiso   1.00
C1444  C     0.00000   0.84909   0.25000   0.06333  Uiso   1.00
C1445  C     0.00000   0.92795   0.25000   0.06333  Uiso   1.00
C1446  C     0.00000   0.90091   0.25000   0.06333  Uiso   1.00
C1447  C     0.17795   0.75000   0.37500   0.06333  Uiso   1.00
C1448  C     0.15091   0.75000   0.37500   0.06333  Uiso   1.00
C1449  C     0.07205   0.75000   0.37500   0.06333  Uiso   1.00
C1450  C     0.09909   0.75000   0.37500   0.06333  Uiso   1.00
Fe1451 Fe    0.25000   0.75000   0.31250   0.06333  Uiso   1.00
Fe1452 Fe    0.25000   0.75000   0.43750   0.06333  Uiso   1.00
C1453  C     0.25000   0.80715   0.46180   0.06333  Uiso   1.00
C1454  C     0.25000   0.86204   0.45820   0.06333  Uiso   1.00
N1455  N     0.25000   0.78304   0.47639   0.06333  Uiso   1.00
H1456  H     0.25000   0.81262   0.43042   0.06333  Uiso   1.00
H1457  H     0.25000   0.85319   0.42964   0.06333  Uiso   1.00
C1458  C     0.25000   0.94285   0.46180   0.06333  Uiso   1.00
C1459  C     0.25000   0.88796   0.45820   0.06333  Uiso   1.00
N1460  N     0.25000   0.96696   0.47639   0.06333  Uiso   1.00
H1461  H     0.25000   0.93738   0.43042   0.06333  Uiso   1.00
H1462  H     0.25000   0.89681   0.42964   0.06333  Uiso   1.00
C1463  C     0.44285   0.75000   0.33680   0.06333  Uiso   1.00
C1464  C     0.38796   0.75000   0.33320   0.06333  Uiso   1.00
N1465  N     0.46696   0.75000   0.35139   0.06333  Uiso   1.00
H1466  H     0.43738   0.75000   0.30542   0.06333  Uiso   1.00
H1467  H     0.39681   0.75000   0.30464   0.06333  Uiso   1.00
C1468  C     0.30715   0.75000   0.33680   0.06333  Uiso   1.00
C1469  C     0.36204   0.75000   0.33320   0.06333  Uiso   1.00
N1470  N     0.28304   0.75000   0.35139   0.06333  Uiso   1.00
H1471  H     0.31262   0.75000   0.30542   0.06333  Uiso   1.00
H1472  H     0.35319   0.75000   0.30464   0.06333  Uiso   1.00
C1473  C     0.25000   0.80715   0.28820   0.06333  Uiso   1.00
C1474  C     0.25000   0.86204   0.29180   0.06333  Uiso   1.00
N1475  N     0.25000   0.78304   0.27361   0.06333  Uiso   1.00
H1476  H     0.25000   0.81262   0.31958   0.06333  Uiso   1.00
H1477  H     0.25000   0.85319   0.32036   0.06333  Uiso   1.00
C1478  C     0.25000   0.94285   0.28820   0.06333  Uiso   1.00
C1479  C     0.25000   0.88796   0.29180   0.06333  Uiso   1.00
N1480  N     0.25000   0.96696   0.27361   0.06333  Uiso   1.00
H1481  H     0.25000   0.93738   0.31958   0.06333  Uiso   1.00
H1482  H     0.25000   0.89681   0.32036   0.06333  Uiso   1.00
C1483  C     0.30715   0.75000   0.41320   0.06333  Uiso   1.00
C1484  C     0.36204   0.75000   0.41680   0.06333  Uiso   1.00
N1485  N     0.28304   0.75000   0.39861   0.06333  Uiso   1.00
H1486  H     0.31262   0.75000   0.44458   0.06333  Uiso   1.00
H1487  H     0.35319   0.75000   0.44536   0.06333  Uiso   1.00
C1488  C     0.44285   0.75000   0.41320   0.06333  Uiso   1.00
C1489  C     0.38796   0.75000   0.41680   0.06333  Uiso   1.00
N1490  N     0.46696   0.75000   0.39861   0.06333  Uiso   1.00
H1491  H     0.43738   0.75000   0.44458   0.06333  Uiso   1.00
H1492  H     0.39681   0.75000   0.44536   0.06333  Uiso   1.00
C1493  C     0.25000   0.82205   0.25000   0.06333  Uiso   1.00
C1494  C     0.25000   0.84909   0.25000   0.06333  Uiso   1.00
C1495  C     0.25000   0.92795   0.25000   0.06333  Uiso   1.00
C1496  C     0.25000   0.90091   0.25000   0.06333  Uiso   1.00
C1497  C     0.42795   0.75000   0.37500   0.06333  Uiso   1.00
C1498  C     0.40091   0.75000   0.37500   0.06333  Uiso   1.00
C1499  C     0.32205   0.75000   0.37500   0.06333  Uiso   1.00
C1500  C     0.34909   0.75000   0.37500   0.06333  Uiso   1.00
Fe1501 Fe    0.50000   0.75000   0.31250   0.06333  Uiso   1.00
Fe1502 Fe    0.50000   0.75000   0.43750   0.06333  Uiso   1.00
C1503  C     0.50000   0.80715   0.46180   0.06333  Uiso   1.00
C1504  C     0.50000   0.86204   0.45820   0.06333  Uiso   1.00
N1505  N     0.50000   0.78304   0.47639   0.06333  Uiso   1.00
H1506  H     0.50000   0.81262   0.43042   0.06333  Uiso   1.00
H1507  H     0.50000   0.85319   0.42964   0.06333  Uiso   1.00
C1508  C     0.50000   0.94285   0.46180   0.06333  Uiso   1.00
C1509  C     0.50000   0.88796   0.45820   0.06333  Uiso   1.00
N1510  N     0.50000   0.96696   0.47639   0.06333  Uiso   1.00
H1511  H     0.50000   0.93738   0.43042   0.06333  Uiso   1.00
H1512  H     0.50000   0.89681   0.42964   0.06333  Uiso   1.00
C1513  C     0.69285   0.75000   0.33680   0.06333  Uiso   1.00
C1514  C     0.63796   0.75000   0.33320   0.06333  Uiso   1.00
N1515  N     0.71696   0.75000   0.35139   0.06333  Uiso   1.00
H1516  H     0.68738   0.75000   0.30542   0.06333  Uiso   1.00
H1517  H     0.64681   0.75000   0.30464   0.06333  Uiso   1.00
C1518  C     0.55715   0.75000   0.33680   0.06333  Uiso   1.00
C1519  C     0.61204   0.75000   0.33320   0.06333  Uiso   1.00
N1520  N     0.53304   0.75000   0.35139   0.06333  Uiso   1.00
H1521  H     0.56262   0.75000   0.30542   0.06333  Uiso   1.00
H1522  H     0.60319   0.75000   0.30464   0.06333  Uiso   1.00
C1523  C     0.50000   0.80715   0.28820   0.06333  Uiso   1.00
C1524  C     0.50000   0.86204   0.29180   0.06333  Uiso   1.00
N1525  N     0.50000   0.78304   0.27361   0.06333  Uiso   1.00
H1526  H     0.50000   0.81262   0.31958   0.06333  Uiso   1.00
H1527  H     0.50000   0.85319   0.32036   0.06333  Uiso   1.00
C1528  C     0.50000   0.94285   0.28820   0.06333  Uiso   1.00
C1529  C     0.50000   0.88796   0.29180   0.06333  Uiso   1.00
N1530  N     0.50000   0.96696   0.27361   0.06333  Uiso   1.00
H1531  H     0.50000   0.93738   0.31958   0.06333  Uiso   1.00
H1532  H     0.50000   0.89681   0.32036   0.06333  Uiso   1.00
C1533  C     0.55715   0.75000   0.41320   0.06333  Uiso   1.00
C1534  C     0.61204   0.75000   0.41680   0.06333  Uiso   1.00
N1535  N     0.53304   0.75000   0.39861   0.06333  Uiso   1.00
H1536  H     0.56262   0.75000   0.44458   0.06333  Uiso   1.00
H1537  H     0.60319   0.75000   0.44536   0.06333  Uiso   1.00
C1538  C     0.69285   0.75000   0.41320   0.06333  Uiso   1.00
C1539  C     0.63796   0.75000   0.41680   0.06333  Uiso   1.00
N1540  N     0.71696   0.75000   0.39861   0.06333  Uiso   1.00
H1541  H     0.68738   0.75000   0.44458   0.06333  Uiso   1.00
H1542  H     0.64681   0.75000   0.44536   0.06333  Uiso   1.00
C1543  C     0.50000   0.82205   0.25000   0.06333  Uiso   1.00
C1544  C     0.50000   0.84909   0.25000   0.06333  Uiso   1.00
C1545  C     0.50000   0.92795   0.25000   0.06333  Uiso   1.00
C1546  C     0.50000   0.90091   0.25000   0.06333  Uiso   1.00
C1547  C     0.67795   0.75000   0.37500   0.06333  Uiso   1.00
C1548  C     0.65091   0.75000   0.37500   0.06333  Uiso   1.00
C1549  C     0.57205   0.75000   0.37500   0.06333  Uiso   1.00
C1550  C     0.59909   0.75000   0.37500   0.06333  Uiso   1.00
Fe1551 Fe    0.75000   0.75000   0.31250   0.06333  Uiso   1.00
Fe1552 Fe    0.75000   0.75000   0.43750   0.06333  Uiso   1.00
C1553  C     0.75000   0.80715   0.46180   0.06333  Uiso   1.00
C1554  C     0.75000   0.86204   0.45820   0.06333  Uiso   1.00
N1555  N     0.75000   0.78304   0.47639   0.06333  Uiso   1.00
H1556  H     0.75000   0.81262   0.43042   0.06333  Uiso   1.00
H1557  H     0.75000   0.85319   0.42964   0.06333  Uiso   1.00
C1558  C     0.75000   0.94285   0.46180   0.06333  Uiso   1.00
C1559  C     0.75000   0.88796   0.45820   0.06333  Uiso   1.00
N1560  N     0.75000   0.96696   0.47639   0.06333  Uiso   1.00
H1561  H     0.75000   0.93738   0.43042   0.06333  Uiso   1.00
H1562  H     0.75000   0.89681   0.42964   0.06333  Uiso   1.00
C1563  C     0.94285   0.75000   0.33680   0.06333  Uiso   1.00
C1564  C     0.88796   0.75000   0.33320   0.06333  Uiso   1.00
N1565  N     0.96696   0.75000   0.35139   0.06333  Uiso   1.00
H1566  H     0.93738   0.75000   0.30542   0.06333  Uiso   1.00
H1567  H     0.89681   0.75000   0.30464   0.06333  Uiso   1.00
C1568  C     0.80715   0.75000   0.33680   0.06333  Uiso   1.00
C1569  C     0.86204   0.75000   0.33320   0.06333  Uiso   1.00
N1570  N     0.78304   0.75000   0.35139   0.06333  Uiso   1.00
H1571  H     0.81262   0.75000   0.30542   0.06333  Uiso   1.00
H1572  H     0.85319   0.75000   0.30464   0.06333  Uiso   1.00
C1573  C     0.75000   0.80715   0.28820   0.06333  Uiso   1.00
C1574  C     0.75000   0.86204   0.29180   0.06333  Uiso   1.00
N1575  N     0.75000   0.78304   0.27361   0.06333  Uiso   1.00
H1576  H     0.75000   0.81262   0.31958   0.06333  Uiso   1.00
H1577  H     0.75000   0.85319   0.32036   0.06333  Uiso   1.00
C1578  C     0.75000   0.94285   0.28820   0.06333  Uiso   1.00
C1579  C     0.75000   0.88796   0.29180   0.06333  Uiso   1.00
N1580  N     0.75000   0.96696   0.27361   0.06333  Uiso   1.00
H1581  H     0.75000   0.93738   0.31958   0.06333  Uiso   1.00
H1582  H     0.75000   0.89681   0.32036   0.06333  Uiso   1.00
C1583  C     0.80715   0.75000   0.41320   0.06333  Uiso   1.00
C1584  C     0.86204   0.75000   0.41680   0.06333  Uiso   1.00
N1585  N     0.78304   0.75000   0.39861   0.06333  Uiso   1.00
H1586  H     0.81262   0.75000   0.44458   0.06333  Uiso   1.00
H1587  H     0.85319   0.75000   0.44536   0.06333  Uiso   1.00
C1588  C     0.94285   0.75000   0.41320   0.06333  Uiso   1.00
C1589  C     0.88796   0.75000   0.41680   0.06333  Uiso   1.00
N1590  N     0.96696   0.75000   0.39861   0.06333  Uiso   1.00
H1591  H     0.93738   0.75000   0.44458   0.06333  Uiso   1.00
H1592  H     0.89681   0.75000   0.44536   0.06333  Uiso   1.00
C1593  C     0.75000   0.82205   0.25000   0.06333  Uiso   1.00
C1594  C     0.75000   0.84909   0.25000   0.06333  Uiso   1.00
C1595  C     0.75000   0.92795   0.25000   0.06333  Uiso   1.00
C1596  C     0.75000   0.90091   0.25000   0.06333  Uiso   1.00
C1597  C     0.92795   0.75000   0.37500   0.06333  Uiso   1.00
C1598  C     0.90091   0.75000   0.37500   0.06333  Uiso   1.00
C1599  C     0.82205   0.75000   0.37500   0.06333  Uiso   1.00
C1600  C     0.84909   0.75000   0.37500   0.06333  Uiso   1.00
Fe1601 Fe    0.00000   0.00000   0.56250   0.06333  Uiso   1.00
Fe1602 Fe    0.00000   0.00000   0.68750   0.06333  Uiso   1.00
C1603  C     0.00000   0.05715   0.71180   0.06333  Uiso   1.00
C1604  C     0.00000   0.11204   0.70820   0.06333  Uiso   1.00
N1605  N     0.00000   0.03304   0.72639   0.06333  Uiso   1.00
H1606  H     0.00000   0.06262   0.68042   0.06333  Uiso   1.00
H1607  H     0.00000   0.10319   0.67964   0.06333  Uiso   1.00
C1608  C     0.00000   0.19285   0.71180   0.06333  Uiso   1.00
C1609  C     0.00000   0.13796   0.70820   0.06333  Uiso   1.00
N1610  N     0.00000   0.21696   0.72639   0.06333  Uiso   1.00
H1611  H     0.00000   0.18738   0.68042   0.06333  Uiso   1.00
H1612  H     0.00000   0.14681   0.67964   0.06333  Uiso   1.00
C1613  C     0.19285   0.00000   0.58680   0.06333  Uiso   1.00
C1614  C     0.13796   0.00000   0.58320   0.06333  Uiso   1.00
N1615  N     0.21696   0.00000   0.60139   0.06333  Uiso   1.00
H1616  H     0.18738   0.00000   0.55542   0.06333  Uiso   1.00
H1617  H     0.14681   0.00000   0.55464   0.06333  Uiso   1.00
C1618  C     0.05715   0.00000   0.58680   0.06333  Uiso   1.00
C1619  C     0.11204   0.00000   0.58320   0.06333  Uiso   1.00
N1620  N     0.03304   0.00000   0.60139   0.06333  Uiso   1.00
H1621  H     0.06262   0.00000   0.55542   0.06333  Uiso   1.00
H1622  H     0.10319   0.00000   0.55464   0.06333  Uiso   1.00
C1623  C     0.00000   0.05715   0.53820   0.06333  Uiso   1.00
C1624  C     0.00000   0.11204   0.54180   0.06333  Uiso   1.00
N1625  N     0.00000   0.03304   0.52361   0.06333  Uiso   1.00
H1626  H     0.00000   0.06262   0.56958   0.06333  Uiso   1.00
H1627  H     0.00000   0.10319   0.57036   0.06333  Uiso   1.00
C1628  C     0.00000   0.19285   0.53820   0.06333  Uiso   1.00
C1629  C     0.00000   0.13796   0.54180   0.06333  Uiso   1.00
N1630  N     0.00000   0.21696   0.52361   0.06333  Uiso   1.00
H1631  H     0.00000   0.18738   0.56958   0.06333  Uiso   1.00
H1632  H     0.00000   0.14681   0.57036   0.06333  Uiso   1.00
C1633  C     0.05715   0.00000   0.66320   0.06333  Uiso   1.00
C1634  C     0.11204   0.00000   0.66680   0.06333  Uiso   1.00
N1635  N     0.03304   0.00000   0.64861   0.06333  Uiso   1.00
H1636  H     0.06262   0.00000   0.69458   0.06333  Uiso   1.00
H1637  H     0.10319   0.00000   0.69536   0.06333  Uiso   1.00
C1638  C     0.19285   0.00000   0.66320   0.06333  Uiso   1.00
C1639  C     0.13796   0.00000   0.66680   0.06333  Uiso   1.00
N1640  N     0.21696   0.00000   0.64861   0.06333  Uiso   1.00
H1641  H     0.18738   0.00000   0.69458   0.06333  Uiso   1.00
H1642  H     0.14681   0.00000   0.69536   0.06333  Uiso   1.00
C1643  C     0.00000   0.07205   0.50000   0.06333  Uiso   1.00
C1644  C     0.00000   0.09909   0.50000   0.06333  Uiso   1.00
C1645  C     0.00000   0.17795   0.50000   0.06333  Uiso   1.00
C1646  C     0.00000   0.15091   0.50000   0.06333  Uiso   1.00
C1647  C     0.17795   0.00000   0.62500   0.06333  Uiso   1.00
C1648  C     0.15091   0.00000   0.62500   0.06333  Uiso   1.00
C1649  C     0.07205   0.00000   0.62500   0.06333  Uiso   1.00
C1650  C     0.09909   0.00000   0.62500   0.06333  Uiso   1.00
Fe1651 Fe    0.25000   0.00000   0.56250   0.06333  Uiso   1.00
Fe1652 Fe    0.25000   0.00000   0.68750   0.06333  Uiso   1.00
C1653  C     0.25000   0.05715   0.71180   0.06333  Uiso   1.00
C1654  C     0.25000   0.11204   0.70820   0.06333  Uiso   1.00
N1655  N     0.25000   0.03304   0.72639   0.06333  Uiso   1.00
H1656  H     0.25000   0.06262   0.68042   0.06333  Uiso   1.00
H1657  H     0.25000   0.10319   0.67964   0.06333  Uiso   1.00
C1658  C     0.25000   0.19285   0.71180   0.06333  Uiso   1.00
C1659  C     0.25000   0.13796   0.70820   0.06333  Uiso   1.00
N1660  N     0.25000   0.21696   0.72639   0.06333  Uiso   1.00
H1661  H     0.25000   0.18738   0.68042   0.06333  Uiso   1.00
H1662  H     0.25000   0.14681   0.67964   0.06333  Uiso   1.00
C1663  C     0.44285   0.00000   0.58680   0.06333  Uiso   1.00
C1664  C     0.38796   0.00000   0.58320   0.06333  Uiso   1.00
N1665  N     0.46696   0.00000   0.60139   0.06333  Uiso   1.00
H1666  H     0.43738   0.00000   0.55542   0.06333  Uiso   1.00
H1667  H     0.39681   0.00000   0.55464   0.06333  Uiso   1.00
C1668  C     0.30715   0.00000   0.58680   0.06333  Uiso   1.00
C1669  C     0.36204   0.00000   0.58320   0.06333  Uiso   1.00
N1670  N     0.28304   0.00000   0.60139   0.06333  Uiso   1.00
H1671  H     0.31262   0.00000   0.55542   0.06333  Uiso   1.00
H1672  H     0.35319   0.00000   0.55464   0.06333  Uiso   1.00
C1673  C     0.25000   0.05715   0.53820   0.06333  Uiso   1.00
C1674  C     0.25000   0.11204   0.54180   0.06333  Uiso   1.00
N1675  N     0.25000   0.03304   0.52361   0.06333  Uiso   1.00
H1676  H     0.25000   0.06262   0.56958   0.06333  Uiso   1.00
H1677  H     0.25000   0.10319   0.57036   0.06333  Uiso   1.00
C1678  C     0.25000   0.19285   0.53820   0.06333  Uiso   1.00
C1679  C     0.25000   0.13796   0.54180   0.06333  Uiso   1.00
N1680  N     0.25000   0.21696   0.52361   0.06333  Uiso   1.00
H1681  H     0.25000   0.18738   0.56958   0.06333  Uiso   1.00
H1682  H     0.25000   0.14681   0.57036   0.06333  Uiso   1.00
C1683  C     0.30715   0.00000   0.66320   0.06333  Uiso   1.00
C1684  C     0.36204   0.00000   0.66680   0.06333  Uiso   1.00
N1685  N     0.28304   0.00000   0.64861   0.06333  Uiso   1.00
H1686  H     0.31262   0.00000   0.69458   0.06333  Uiso   1.00
H1687  H     0.35319   0.00000   0.69536   0.06333  Uiso   1.00
C1688  C     0.44285   0.00000   0.66320   0.06333  Uiso   1.00
C1689  C     0.38796   0.00000   0.66680   0.06333  Uiso   1.00
N1690  N     0.46696   0.00000   0.64861   0.06333  Uiso   1.00
H1691  H     0.43738   0.00000   0.69458   0.06333  Uiso   1.00
H1692  H     0.39681   0.00000   0.69536   0.06333  Uiso   1.00
C1693  C     0.25000   0.07205   0.50000   0.06333  Uiso   1.00
C1694  C     0.25000   0.09909   0.50000   0.06333  Uiso   1.00
C1695  C     0.25000   0.17795   0.50000   0.06333  Uiso   1.00
C1696  C     0.25000   0.15091   0.50000   0.06333  Uiso   1.00
C1697  C     0.42795   0.00000   0.62500   0.06333  Uiso   1.00
C1698  C     0.40091   0.00000   0.62500   0.06333  Uiso   1.00
C1699  C     0.32205   0.00000   0.62500   0.06333  Uiso   1.00
C1700  C     0.34909   0.00000   0.62500   0.06333  Uiso   1.00
Fe1701 Fe    0.50000   0.00000   0.56250   0.06333  Uiso   1.00
Fe1702 Fe    0.50000   0.00000   0.68750   0.06333  Uiso   1.00
C1703  C     0.50000   0.05715   0.71180   0.06333  Uiso   1.00
C1704  C     0.50000   0.11204   0.70820   0.06333  Uiso   1.00
N1705  N     0.50000   0.03304   0.72639   0.06333  Uiso   1.00
H1706  H     0.50000   0.06262   0.68042   0.06333  Uiso   1.00
H1707  H     0.50000   0.10319   0.67964   0.06333  Uiso   1.00
C1708  C     0.50000   0.19285   0.71180   0.06333  Uiso   1.00
C1709  C     0.50000   0.13796   0.70820   0.06333  Uiso   1.00
N1710  N     0.50000   0.21696   0.72639   0.06333  Uiso   1.00
H1711  H     0.50000   0.18738   0.68042   0.06333  Uiso   1.00
H1712  H     0.50000   0.14681   0.67964   0.06333  Uiso   1.00
C1713  C     0.69285   0.00000   0.58680   0.06333  Uiso   1.00
C1714  C     0.63796   0.00000   0.58320   0.06333  Uiso   1.00
N1715  N     0.71696   0.00000   0.60139   0.06333  Uiso   1.00
H1716  H     0.68738   0.00000   0.55542   0.06333  Uiso   1.00
H1717  H     0.64681   0.00000   0.55464   0.06333  Uiso   1.00
C1718  C     0.55715   0.00000   0.58680   0.06333  Uiso   1.00
C1719  C     0.61204   0.00000   0.58320   0.06333  Uiso   1.00
N1720  N     0.53304   0.00000   0.60139   0.06333  Uiso   1.00
H1721  H     0.56262   0.00000   0.55542   0.06333  Uiso   1.00
H1722  H     0.60319   0.00000   0.55464   0.06333  Uiso   1.00
C1723  C     0.50000   0.05715   0.53820   0.06333  Uiso   1.00
C1724  C     0.50000   0.11204   0.54180   0.06333  Uiso   1.00
N1725  N     0.50000   0.03304   0.52361   0.06333  Uiso   1.00
H1726  H     0.50000   0.06262   0.56958   0.06333  Uiso   1.00
H1727  H     0.50000   0.10319   0.57036   0.06333  Uiso   1.00
C1728  C     0.50000   0.19285   0.53820   0.06333  Uiso   1.00
C1729  C     0.50000   0.13796   0.54180   0.06333  Uiso   1.00
N1730  N     0.50000   0.21696   0.52361   0.06333  Uiso   1.00
H1731  H     0.50000   0.18738   0.56958   0.06333  Uiso   1.00
H1732  H     0.50000   0.14681   0.57036   0.06333  Uiso   1.00
C1733  C     0.55715   0.00000   0.66320   0.06333  Uiso   1.00
C1734  C     0.61204   0.00000   0.66680   0.06333  Uiso   1.00
N1735  N     0.53304   0.00000   0.64861   0.06333  Uiso   1.00
H1736  H     0.56262   0.00000   0.69458   0.06333  Uiso   1.00
H1737  H     0.60319   0.00000   0.69536   0.06333  Uiso   1.00
C1738  C     0.69285   0.00000   0.66320   0.06333  Uiso   1.00
C1739  C     0.63796   0.00000   0.66680   0.06333  Uiso   1.00
N1740  N     0.71696   0.00000   0.64861   0.06333  Uiso   1.00
H1741  H     0.68738   0.00000   0.69458   0.06333  Uiso   1.00
H1742  H     0.64681   0.00000   0.69536   0.06333  Uiso   1.00
C1743  C     0.50000   0.07205   0.50000   0.06333  Uiso   1.00
C1744  C     0.50000   0.09909   0.50000   0.06333  Uiso   1.00
C1745  C     0.50000   0.17795   0.50000   0.06333  Uiso   1.00
C1746  C     0.50000   0.15091   0.50000   0.06333  Uiso   1.00
C1747  C     0.67795   0.00000   0.62500   0.06333  Uiso   1.00
C1748  C     0.65091   0.00000   0.62500   0.06333  Uiso   1.00
C1749  C     0.57205   0.00000   0.62500   0.06333  Uiso   1.00
C1750  C     0.59909   0.00000   0.62500   0.06333  Uiso   1.00
Fe1751 Fe    0.75000   0.00000   0.56250   0.06333  Uiso   1.00
Fe1752 Fe    0.75000   0.00000   0.68750   0.06333  Uiso   1.00
C1753  C     0.75000   0.05715   0.71180   0.06333  Uiso   1.00
C1754  C     0.75000   0.11204   0.70820   0.06333  Uiso   1.00
N1755  N     0.75000   0.03304   0.72639   0.06333  Uiso   1.00
H1756  H     0.75000   0.06262   0.68042   0.06333  Uiso   1.00
H1757  H     0.75000   0.10319   0.67964   0.06333  Uiso   1.00
C1758  C     0.75000   0.19285   0.71180   0.06333  Uiso   1.00
C1759  C     0.75000   0.13796   0.70820   0.06333  Uiso   1.00
N1760  N     0.75000   0.21696   0.72639   0.06333  Uiso   1.00
H1761  H     0.75000   0.18738   0.68042   0.06333  Uiso   1.00
H1762  H     0.75000   0.14681   0.67964   0.06333  Uiso   1.00
C1763  C     0.94285   0.00000   0.58680   0.06333  Uiso   1.00
C1764  C     0.88796   0.00000   0.58320   0.06333  Uiso   1.00
N1765  N     0.96696   0.00000   0.60139   0.06333  Uiso   1.00
H1766  H     0.93738   0.00000   0.55542   0.06333  Uiso   1.00
H1767  H     0.89681   0.00000   0.55464   0.06333  Uiso   1.00
C1768  C     0.80715   0.00000   0.58680   0.06333  Uiso   1.00
C1769  C     0.86204   0.00000   0.58320   0.06333  Uiso   1.00
N1770  N     0.78304   0.00000   0.60139   0.06333  Uiso   1.00
H1771  H     0.81262   0.00000   0.55542   0.06333  Uiso   1.00
H1772  H     0.85319   0.00000   0.55464   0.06333  Uiso   1.00
C1773  C     0.75000   0.05715   0.53820   0.06333  Uiso   1.00
C1774  C     0.75000   0.11204   0.54180   0.06333  Uiso   1.00
N1775  N     0.75000   0.03304   0.52361   0.06333  Uiso   1.00
H1776  H     0.75000   0.06262   0.56958   0.06333  Uiso   1.00
H1777  H     0.75000   0.10319   0.57036   0.06333  Uiso   1.00
C1778  C     0.75000   0.19285   0.53820   0.06333  Uiso   1.00
C1779  C     0.75000   0.13796   0.54180   0.06333  Uiso   1.00
N1780  N     0.75000   0.21696   0.52361   0.06333  Uiso   1.00
H1781  H     0.75000   0.18738   0.56958   0.06333  Uiso   1.00
H1782  H     0.75000   0.14681   0.57036   0.06333  Uiso   1.00
C1783  C     0.80715   0.00000   0.66320   0.06333  Uiso   1.00
C1784  C     0.86204   0.00000   0.66680   0.06333  Uiso   1.00
N1785  N     0.78304   0.00000   0.64861   0.06333  Uiso   1.00
H1786  H     0.81262   0.00000   0.69458   0.06333  Uiso   1.00
H1787  H     0.85319   0.00000   0.69536   0.06333  Uiso   1.00
C1788  C     0.94285   0.00000   0.66320   0.06333  Uiso   1.00
C1789  C     0.88796   0.00000   0.66680   0.06333  Uiso   1.00
N1790  N     0.96696   0.00000   0.64861   0.06333  Uiso   1.00
H1791  H     0.93738   0.00000   0.69458   0.06333  Uiso   1.00
H1792  H     0.89681   0.00000   0.69536   0.06333  Uiso   1.00
C1793  C     0.75000   0.07205   0.50000   0.06333  Uiso   1.00
C1794  C     0.75000   0.09909   0.50000   0.06333  Uiso   1.00
C1795  C     0.75000   0.17795   0.50000   0.06333  Uiso   1.00
C1796  C     0.75000   0.15091   0.50000   0.06333  Uiso   1.00
C1797  C     0.92795   0.00000   0.62500   0.06333  Uiso   1.00
C1798  C     0.90091   0.00000   0.62500   0.06333  Uiso   1.00
C1799  C     0.82205   0.00000   0.62500   0.06333  Uiso   1.00
C1800  C     0.84909   0.00000   0.62500   0.06333  Uiso   1.00
Fe1801 Fe    0.00000   0.25000   0.56250   0.06333  Uiso   1.00
Fe1802 Fe    0.00000   0.25000   0.68750   0.06333  Uiso   1.00
C1803  C     0.00000   0.30715   0.71180   0.06333  Uiso   1.00
C1804  C     0.00000   0.36204   0.70820   0.06333  Uiso   1.00
N1805  N     0.00000   0.28304   0.72639   0.06333  Uiso   1.00
H1806  H     0.00000   0.31262   0.68042   0.06333  Uiso   1.00
H1807  H     0.00000   0.35319   0.67964   0.06333  Uiso   1.00
C1808  C     0.00000   0.44285   0.71180   0.06333  Uiso   1.00
C1809  C     0.00000   0.38796   0.70820   0.06333  Uiso   1.00
N1810  N     0.00000   0.46696   0.72639   0.06333  Uiso   1.00
H1811  H     0.00000   0.43738   0.68042   0.06333  Uiso   1.00
H1812  H     0.00000   0.39681   0.67964   0.06333  Uiso   1.00
C1813  C     0.19285   0.25000   0.58680   0.06333  Uiso   1.00
C1814  C     0.13796   0.25000   0.58320   0.06333  Uiso   1.00
N1815  N     0.21696   0.25000   0.60139   0.06333  Uiso   1.00
H1816  H     0.18738   0.25000   0.55542   0.06333  Uiso   1.00
H1817  H     0.14681   0.25000   0.55464   0.06333  Uiso   1.00
C1818  C     0.05715   0.25000   0.58680   0.06333  Uiso   1.00
C1819  C     0.11204   0.25000   0.58320   0.06333  Uiso   1.00
N1820  N     0.03304   0.25000   0.60139   0.06333  Uiso   1.00
H1821  H     0.06262   0.25000   0.55542   0.06333  Uiso   1.00
H1822  H     0.10319   0.25000   0.55464   0.06333  Uiso   1.00
C1823  C     0.00000   0.30715   0.53820   0.06333  Uiso   1.00
C1824  C     0.00000   0.36204   0.54180   0.06333  Uiso   1.00
N1825  N     0.00000   0.28304   0.52361   0.06333  Uiso   1.00
H1826  H     0.00000   0.31262   0.56958   0.06333  Uiso   1.00
H1827  H     0.00000   0.35319   0.57036   0.06333  Uiso   1.00
C1828  C     0.00000   0.44285   0.53820   0.06333  Uiso   1.00
C1829  C     0.00000   0.38796   0.54180   0.06333  Uiso   1.00
N1830  N     0.00000   0.46696   0.52361   0.06333  Uiso   1.00
H1831  H     0.00000   0.43738   0.56958   0.06333  Uiso   1.00
H1832  H     0.00000   0.39681   0.57036   0.06333  Uiso   1.00
C1833  C     0.05715   0.25000   0.66320   0.06333  Uiso   1.00
C1834  C     0.11204   0.25000   0.66680   0.06333  Uiso   1.00
N1835  N     0.03304   0.25000   0.64861   0.06333  Uiso   1.00
H1836  H     0.06262   0.25000   0.69458   0.06333  Uiso   1.00
H1837  H     0.10319   0.25000   0.69536   0.06333  Uiso   1.00
C1838  C     0.19285   0.25000   0.66320   0.06333  Uiso   1.00
C1839  C     0.13796   0.25000   0.66680   0.06333  Uiso   1.00
N1840  N     0.21696   0.25000   0.64861   0.06333  Uiso   1.00
H1841  H     0.18738   0.25000   0.69458   0.06333  Uiso   1.00
H1842  H     0.14681   0.25000   0.69536   0.06333  Uiso   1.00
C1843  C     0.00000   0.32205   0.50000   0.06333  Uiso   1.00
C1844  C     0.00000   0.34909   0.50000   0.06333  Uiso   1.00
C1845  C     0.00000   0.42795   0.50000   0.06333  Uiso   1.00
C1846  C     0.00000   0.40091   0.50000   0.06333  Uiso   1.00
C1847  C     0.17795   0.25000   0.62500   0.06333  Uiso   1.00
C1848  C     0.15091   0.25000   0.62500   0.06333  Uiso   1.00
C1849  C     0.07205   0.25000   0.62500   0.06333  Uiso   1.00
C1850  C     0.09909   0.25000   0.62500   0.06333  Uiso   1.00
Fe1851 Fe    0.25000   0.25000   0.56250   0.06333  Uiso   1.00
Fe1852 Fe    0.25000   0.25000   0.68750   0.06333  Uiso   1.00
C1853  C     0.25000   0.30715   0.71180   0.06333  Uiso   1.00
C1854  C     0.25000   0.36204   0.70820   0.06333  Uiso   1.00
N1855  N     0.25000   0.28304   0.72639   0.06333  Uiso   1.00
H1856  H     0.25000   0.31262   0.68042   0.06333  Uiso   1.00
H1857  H     0.25000   0.35319   0.67964   0.06333  Uiso   1.00
C1858  C     0.25000   0.44285   0.71180   0.06333  Uiso   1.00
C1859  C     0.25000   0.38796   0.70820   0.06333  Uiso   1.00
N1860  N     0.25000   0.46696   0.72639   0.06333  Uiso   1.00
H1861  H     0.25000   0.43738   0.68042   0.06333  Uiso   1.00
H1862  H     0.25000   0.39681   0.67964   0.06333  Uiso   1.00
C1863  C     0.44285   0.25000   0.58680   0.06333  Uiso   1.00
C1864  C     0.38796   0.25000   0.58320   0.06333  Uiso   1.00
N1865  N     0.46696   0.25000   0.60139   0.06333  Uiso   1.00
H1866  H     0.43738   0.25000   0.55542   0.06333  Uiso   1.00
H1867  H     0.39681   0.25000   0.55464   0.06333  Uiso   1.00
C1868  C     0.30715   0.25000   0.58680   0.06333  Uiso   1.00
C1869  C     0.36204   0.25000   0.58320   0.06333  Uiso   1.00
N1870  N     0.28304   0.25000   0.60139   0.06333  Uiso   1.00
H1871  H     0.31262   0.25000   0.55542   0.06333  Uiso   1.00
H1872  H     0.35319   0.25000   0.55464   0.06333  Uiso   1.00
C1873  C     0.25000   0.30715   0.53820   0.06333  Uiso   1.00
C1874  C     0.25000   0.36204   0.54180   0.06333  Uiso   1.00
N1875  N     0.25000   0.28304   0.52361   0.06333  Uiso   1.00
H1876  H     0.25000   0.31262   0.56958   0.06333  Uiso   1.00
H1877  H     0.25000   0.35319   0.57036   0.06333  Uiso   1.00
C1878  C     0.25000   0.44285   0.53820   0.06333  Uiso   1.00
C1879  C     0.25000   0.38796   0.54180   0.06333  Uiso   1.00
N1880  N     0.25000   0.46696   0.52361   0.06333  Uiso   1.00
H1881  H     0.25000   0.43738   0.56958   0.06333  Uiso   1.00
H1882  H     0.25000   0.39681   0.57036   0.06333  Uiso   1.00
C1883  C     0.30715   0.25000   0.66320   0.06333  Uiso   1.00
C1884  C     0.36204   0.25000   0.66680   0.06333  Uiso   1.00
N1885  N     0.28304   0.25000   0.64861   0.06333  Uiso   1.00
H1886  H     0.31262   0.25000   0.69458   0.06333  Uiso   1.00
H1887  H     0.35319   0.25000   0.69536   0.06333  Uiso   1.00
C1888  C     0.44285   0.25000   0.66320   0.06333  Uiso   1.00
C1889  C     0.38796   0.25000   0.66680   0.06333  Uiso   1.00
N1890  N     0.46696   0.25000   0.64861   0.06333  Uiso   1.00
H1891  H     0.43738   0.25000   0.69458   0.06333  Uiso   1.00
H1892  H     0.39681   0.25000   0.69536   0.06333  Uiso   1.00
C1893  C     0.25000   0.32205   0.50000   0.06333  Uiso   1.00
C1894  C     0.25000   0.34909   0.50000   0.06333  Uiso   1.00
C1895  C     0.25000   0.42795   0.50000   0.06333  Uiso   1.00
C1896  C     0.25000   0.40091   0.50000   0.06333  Uiso   1.00
C1897  C     0.42795   0.25000   0.62500   0.06333  Uiso   1.00
C1898  C     0.40091   0.25000   0.62500   0.06333  Uiso   1.00
C1899  C     0.32205   0.25000   0.62500   0.06333  Uiso   1.00
C1900  C     0.34909   0.25000   0.62500   0.06333  Uiso   1.00
Fe1901 Fe    0.50000   0.25000   0.56250   0.06333  Uiso   1.00
Fe1902 Fe    0.50000   0.25000   0.68750   0.06333  Uiso   1.00
C1903  C     0.50000   0.30715   0.71180   0.06333  Uiso   1.00
C1904  C     0.50000   0.36204   0.70820   0.06333  Uiso   1.00
N1905  N     0.50000   0.28304   0.72639   0.06333  Uiso   1.00
H1906  H     0.50000   0.31262   0.68042   0.06333  Uiso   1.00
H1907  H     0.50000   0.35319   0.67964   0.06333  Uiso   1.00
C1908  C     0.50000   0.44285   0.71180   0.06333  Uiso   1.00
C1909  C     0.50000   0.38796   0.70820   0.06333  Uiso   1.00
N1910  N     0.50000   0.46696   0.72639   0.06333  Uiso   1.00
H1911  H     0.50000   0.43738   0.68042   0.06333  Uiso   1.00
H1912  H     0.50000   0.39681   0.67964   0.06333  Uiso   1.00
C1913  C     0.69285   0.25000   0.58680   0.06333  Uiso   1.00
C1914  C     0.63796   0.25000   0.58320   0.06333  Uiso   1.00
N1915  N     0.71696   0.25000   0.60139   0.06333  Uiso   1.00
H1916  H     0.68738   0.25000   0.55542   0.06333  Uiso   1.00
H1917  H     0.64681   0.25000   0.55464   0.06333  Uiso   1.00
C1918  C     0.55715   0.25000   0.58680   0.06333  Uiso   1.00
C1919  C     0.61204   0.25000   0.58320   0.06333  Uiso   1.00
N1920  N     0.53304   0.25000   0.60139   0.06333  Uiso   1.00
H1921  H     0.56262   0.25000   0.55542   0.06333  Uiso   1.00
H1922  H     0.60319   0.25000   0.55464   0.06333  Uiso   1.00
C1923  C     0.50000   0.30715   0.53820   0.06333  Uiso   1.00
C1924  C     0.50000   0.36204   0.54180   0.06333  Uiso   1.00
N1925  N     0.50000   0.28304   0.52361   0.06333  Uiso   1.00
H1926  H     0.50000   0.31262   0.56958   0.06333  Uiso   1.00
H1927  H     0.50000   0.35319   0.57036   0.06333  Uiso   1.00
C1928  C     0.50000   0.44285   0.53820   0.06333  Uiso   1.00
C1929  C     0.50000   0.38796   0.54180   0.06333  Uiso   1.00
N1930  N     0.50000   0.46696   0.52361   0.06333  Uiso   1.00
H1931  H     0.50000   0.43738   0.56958   0.06333  Uiso   1.00
H1932  H     0.50000   0.39681   0.57036   0.06333  Uiso   1.00
C1933  C     0.55715   0.25000   0.66320   0.06333  Uiso   1.00
C1934  C     0.61204   0.25000   0.66680   0.06333  Uiso   1.00
N1935  N     0.53304   0.25000   0.64861   0.06333  Uiso   1.00
H1936  H     0.56262   0.25000   0.69458   0.06333  Uiso   1.00
H1937  H     0.60319   0.25000   0.69536   0.06333  Uiso   1.00
C1938  C     0.69285   0.25000   0.66320   0.06333  Uiso   1.00
C1939  C     0.63796   0.25000   0.66680   0.06333  Uiso   1.00
N1940  N     0.71696   0.25000   0.64861   0.06333  Uiso   1.00
H1941  H     0.68738   0.25000   0.69458   0.06333  Uiso   1.00
H1942  H     0.64681   0.25000   0.69536   0.06333  Uiso   1.00
C1943  C     0.50000   0.32205   0.50000   0.06333  Uiso   1.00
C1944  C     0.50000   0.34909   0.50000   0.06333  Uiso   1.00
C1945  C     0.50000   0.42795   0.50000   0.06333  Uiso   1.00
C1946  C     0.50000   0.40091   0.50000   0.06333  Uiso   1.00
C1947  C     0.67795   0.25000   0.62500   0.06333  Uiso   1.00
C1948  C     0.65091   0.25000   0.62500   0.06333  Uiso   1.00
C1949  C     0.57205   0.25000   0.62500   0.06333  Uiso   1.00
C1950  C     0.59909   0.25000   0.62500   0.06333  Uiso   1.00
Fe1951 Fe    0.75000   0.25000   0.56250   0.06333  Uiso   1.00
Fe1952 Fe    0.75000   0.25000   0.68750   0.06333  Uiso   1.00
C1953  C     0.75000   0.30715   0.71180   0.06333  Uiso   1.00
C1954  C     0.75000   0.36204   0.70820   0.06333  Uiso   1.00
N1955  N     0.75000   0.28304   0.72639   0.06333  Uiso   1.00
H1956  H     0.75000   0.31262   0.68042   0.06333  Uiso   1.00
H1957  H     0.75000   0.35319   0.67964   0.06333  Uiso   1.00
C1958  C     0.75000   0.44285   0.71180   0.06333  Uiso   1.00
C1959  C     0.75000   0.38796   0.70820   0.06333  Uiso   1.00
N1960  N     0.75000   0.46696   0.72639   0.06333  Uiso   1.00
H1961  H     0.75000   0.43738   0.68042   0.06333  Uiso   1.00
H1962  H     0.75000   0.39681   0.67964   0.06333  Uiso   1.00
C1963  C     0.94285   0.25000   0.58680   0.06333  Uiso   1.00
C1964  C     0.88796   0.25000   0.58320   0.06333  Uiso   1.00
N1965  N     0.96696   0.25000   0.60139   0.06333  Uiso   1.00
H1966  H     0.93738   0.25000   0.55542   0.06333  Uiso   1.00
H1967  H     0.89681   0.25000   0.55464   0.06333  Uiso   1.00
C1968  C     0.80715   0.25000   0.58680   0.06333  Uiso   1.00
C1969  C     0.86204   0.25000   0.58320   0.06333  Uiso   1.00
N1970  N     0.78304   0.25000   0.60139   0.06333  Uiso   1.00
H1971  H     0.81262   0.25000   0.55542   0.06333  Uiso   1.00
H1972  H     0.85319   0.25000   0.55464   0.06333  Uiso   1.00
C1973  C     0.75000   0.30715   0.53820   0.06333  Uiso   1.00
C1974  C     0.75000   0.36204   0.54180   0.06333  Uiso   1.00
N1975  N     0.75000   0.28304   0.52361   0.06333  Uiso   1.00
H1976  H     0.75000   0.31262   0.56958   0.06333  Uiso   1.00
H1977  H     0.75000   0.35319   0.57036   0.06333  Uiso   1.00
C1978  C     0.75000   0.44285   0.53820   0.06333  Uiso   1.00
C1979  C     0.75000   0.38796   0.54180   0.06333  Uiso   1.00
N1980  N     0.75000   0.46696   0.52361   0.06333  Uiso   1.00
H1981  H     0.75000   0.43738   0.56958   0.06333  Uiso   1.00
H1982  H     0.75000   0.39681   0.57036   0.06333  Uiso   1.00
C1983  C     0.80715   0.25000   0.66320   0.06333  Uiso   1.00
C1984  C     0.86204   0.25000   0.66680   0.06333  Uiso   1.00
N1985  N     0.78304   0.25000   0.64861   0.06333  Uiso   1.00
H1986  H     0.81262   0.25000   0.69458   0.06333  Uiso   1.00
H1987  H     0.85319   0.25000   0.69536   0.06333  Uiso   1.00
C1988  C     0.94285   0.25000   0.66320   0.06333  Uiso   1.00
C1989  C     0.88796   0.25000   0.66680   0.06333  Uiso   1.00
N1990  N     0.96696   0.25000   0.64861   0.06333  Uiso   1.00
H1991  H     0.93738   0.25000   0.69458   0.06333  Uiso   1.00
H1992  H     0.89681   0.25000   0.69536   0.06333  Uiso   1.00
C1993  C     0.75000   0.32205   0.50000   0.06333  Uiso   1.00
C1994  C     0.75000   0.34909   0.50000   0.06333  Uiso   1.00
C1995  C     0.75000   0.42795   0.50000   0.06333  Uiso   1.00
C1996  C     0.75000   0.40091   0.50000   0.06333  Uiso   1.00
C1997  C     0.92795   0.25000   0.62500   0.06333  Uiso   1.00
C1998  C     0.90091   0.25000   0.62500   0.06333  Uiso   1.00
C1999  C     0.82205   0.25000   0.62500   0.06333  Uiso   1.00
C2000  C     0.84909   0.25000   0.62500   0.06333  Uiso   1.00
Fe2001 Fe    0.00000   0.50000   0.56250   0.06333  Uiso   1.00
Fe2002 Fe    0.00000   0.50000   0.68750   0.06333  Uiso   1.00
C2003  C     0.00000   0.55715   0.71180   0.06333  Uiso   1.00
C2004  C     0.00000   0.61204   0.70820   0.06333  Uiso   1.00
N2005  N     0.00000   0.53304   0.72639   0.06333  Uiso   1.00
H2006  H     0.00000   0.56262   0.68042   0.06333  Uiso   1.00
H2007  H     0.00000   0.60319   0.67964   0.06333  Uiso   1.00
C2008  C     0.00000   0.69285   0.71180   0.06333  Uiso   1.00
C2009  C     0.00000   0.63796   0.70820   0.06333  Uiso   1.00
N2010  N     0.00000   0.71696   0.72639   0.06333  Uiso   1.00
H2011  H     0.00000   0.68738   0.68042   0.06333  Uiso   1.00
H2012  H     0.00000   0.64681   0.67964   0.06333  Uiso   1.00
C2013  C     0.19285   0.50000   0.58680   0.06333  Uiso   1.00
C2014  C     0.13796   0.50000   0.58320   0.06333  Uiso   1.00
N2015  N     0.21696   0.50000   0.60139   0.06333  Uiso   1.00
H2016  H     0.18738   0.50000   0.55542   0.06333  Uiso   1.00
H2017  H     0.14681   0.50000   0.55464   0.06333  Uiso   1.00
C2018  C     0.05715   0.50000   0.58680   0.06333  Uiso   1.00
C2019  C     0.11204   0.50000   0.58320   0.06333  Uiso   1.00
N2020  N     0.03304   0.50000   0.60139   0.06333  Uiso   1.00
H2021  H     0.06262   0.50000   0.55542   0.06333  Uiso   1.00
H2022  H     0.10319   0.50000   0.55464   0.06333  Uiso   1.00
C2023  C     0.00000   0.55715   0.53820   0.06333  Uiso   1.00
C2024  C     0.00000   0.61204   0.54180   0.06333  Uiso   1.00
N2025  N     0.00000   0.53304   0.52361   0.06333  Uiso   1.00
H2026  H     0.00000   0.56262   0.56958   0.06333  Uiso   1.00
H2027  H     0.00000   0.60319   0.57036   0.06333  Uiso   1.00
C2028  C     0.00000   0.69285   0.53820   0.06333  Uiso   1.00
C2029  C     0.00000   0.63796   0.54180   0.06333  Uiso   1.00
N2030  N     0.00000   0.71696   0.52361   0.06333  Uiso   1.00
H2031  H     0.00000   0.68738   0.56958   0.06333  Uiso   1.00
H2032  H     0.00000   0.64681   0.57036   0.06333  Uiso   1.00
C2033  C     0.05715   0.50000   0.66320   0.06333  Uiso   1.00
C2034  C     0.11204   0.50000   0.66680   0.06333  Uiso   1.00
N2035  N     0.03304   0.50000   0.64861   0.06333  Uiso   1.00
H2036  H     0.06262   0.50000   0.69458   0.06333  Uiso   1.00
H2037  H     0.10319   0.50000   0.69536   0.06333  Uiso   1.00
C2038  C     0.19285   0.50000   0.66320   0.06333  Uiso   1.00
C2039  C     0.13796   0.50000   0.66680   0.06333  Uiso   1.00
N2040  N     0.21696   0.50000   0.64861   0.06333  Uiso   1.00
H2041  H     0.18738   0.50000   0.69458   0.06333  Uiso   1.00
H2042  H     0.14681   0.50000   0.69536   0.06333  Uiso   1.00
C2043  C     0.00000   0.57205   0.50000   0.06333  Uiso   1.00
C2044  C     0.00000   0.59909   0.50000   0.06333  Uiso   1.00
C2045  C     0.00000   0.67795   0.50000   0.06333  Uiso   1.00
C2046  C     0.00000   0.65091   0.50000   0.06333  Uiso   1.00
C2047  C     0.17795   0.50000   0.62500   0.06333  Uiso   1.00
C2048  C     0.15091   0.50000   0.62500   0.06333  Uiso   1.00
C2049  C     0.07205   0.50000   0.62500   0.06333  Uiso   1.00
C2050  C     0.09909   0.50000   0.62500   0.06333  Uiso   1.00
Fe2051 Fe    0.25000   0.50000   0.56250   0.06333  Uiso   1.00
Fe2052 Fe    0.25000   0.50000   0.68750   0.06333  Uiso   1.00
C2053  C     0.25000   0.55715   0.71180   0.06333  Uiso   1.00
C2054  C     0.25000   0.61204   0.70820   0.06333  Uiso   1.00
N2055  N     0.25000   0.53304   0.72639   0.06333  Uiso   1.00
H2056  H     0.25000   0.56262   0.68042   0.06333  Uiso   1.00
H2057  H     0.25000   0.60319   0.67964   0.06333  Uiso   1.00
C2058  C     0.25000   0.69285   0.71180   0.06333  Uiso   1.00
C2059  C     0.25000   0.63796   0.70820   0.06333  Uiso   1.00
N2060  N     0.25000   0.71696   0.72639   0.06333  Uiso   1.00
H2061  H     0.25000   0.68738   0.68042   0.06333  Uiso   1.00
H2062  H     0.25000   0.64681   0.67964   0.06333  Uiso   1.00
C2063  C     0.44285   0.50000   0.58680   0.06333  Uiso   1.00
C2064  C     0.38796   0.50000   0.58320   0.06333  Uiso   1.00
N2065  N     0.46696   0.50000   0.60139   0.06333  Uiso   1.00
H2066  H     0.43738   0.50000   0.55542   0.06333  Uiso   1.00
H2067  H     0.39681   0.50000   0.55464   0.06333  Uiso   1.00
C2068  C     0.30715   0.50000   0.58680   0.06333  Uiso   1.00
C2069  C     0.36204   0.50000   0.58320   0.06333  Uiso   1.00
N2070  N     0.28304   0.50000   0.60139   0.06333  Uiso   1.00
H2071  H     0.31262   0.50000   0.55542   0.06333  Uiso   1.00
H2072  H     0.35319   0.50000   0.55464   0.06333  Uiso   1.00
C2073  C     0.25000   0.55715   0.53820   0.06333  Uiso   1.00
C2074  C     0.25000   0.61204   0.54180   0.06333  Uiso   1.00
N2075  N     0.25000   0.53304   0.52361   0.06333  Uiso   1.00
H2076  H     0.25000   0.56262   0.56958   0.06333  Uiso   1.00
H2077  H     0.25000   0.60319   0.57036   0.06333  Uiso   1.00
C2078  C     0.25000   0.69285   0.53820   0.06333  Uiso   1.00
C2079  C     0.25000   0.63796   0.54180   0.06333  Uiso   1.00
N2080  N     0.25000   0.71696   0.52361   0.06333  Uiso   1.00
H2081  H     0.25000   0.68738   0.56958   0.06333  Uiso   1.00
H2082  H     0.25000   0.64681   0.57036   0.06333  Uiso   1.00
C2083  C     0.30715   0.50000   0.66320   0.06333  Uiso   1.00
C2084  C     0.36204   0.50000   0.66680   0.06333  Uiso   1.00
N2085  N     0.28304   0.50000   0.64861   0.06333  Uiso   1.00
H2086  H     0.31262   0.50000   0.69458   0.06333  Uiso   1.00
H2087  H     0.35319   0.50000   0.69536   0.06333  Uiso   1.00
C2088  C     0.44285   0.50000   0.66320   0.06333  Uiso   1.00
C2089  C     0.38796   0.50000   0.66680   0.06333  Uiso   1.00
N2090  N     0.46696   0.50000   0.64861   0.06333  Uiso   1.00
H2091  H     0.43738   0.50000   0.69458   0.06333  Uiso   1.00
H2092  H     0.39681   0.50000   0.69536   0.06333  Uiso   1.00
C2093  C     0.25000   0.57205   0.50000   0.06333  Uiso   1.00
C2094  C     0.25000   0.59909   0.50000   0.06333  Uiso   1.00
C2095  C     0.25000   0.67795   0.50000   0.06333  Uiso   1.00
C2096  C     0.25000   0.65091   0.50000   0.06333  Uiso   1.00
C2097  C     0.42795   0.50000   0.62500   0.06333  Uiso   1.00
C2098  C     0.40091   0.50000   0.62500   0.06333  Uiso   1.00
C2099  C     0.32205   0.50000   0.62500   0.06333  Uiso   1.00
C2100  C     0.34909   0.50000   0.62500   0.06333  Uiso   1.00
Fe2101 Fe    0.50000   0.50000   0.56250   0.06333  Uiso   1.00
Fe2102 Fe    0.50000   0.50000   0.68750   0.06333  Uiso   1.00
C2103  C     0.50000   0.55715   0.71180   0.06333  Uiso   1.00
C2104  C     0.50000   0.61204   0.70820   0.06333  Uiso   1.00
N2105  N     0.50000   0.53304   0.72639   0.06333  Uiso   1.00
H2106  H     0.50000   0.56262   0.68042   0.06333  Uiso   1.00
H2107  H     0.50000   0.60319   0.67964   0.06333  Uiso   1.00
C2108  C     0.50000   0.69285   0.71180   0.06333  Uiso   1.00
C2109  C     0.50000   0.63796   0.70820   0.06333  Uiso   1.00
N2110  N     0.50000   0.71696   0.72639   0.06333  Uiso   1.00
H2111  H     0.50000   0.68738   0.68042   0.06333  Uiso   1.00
H2112  H     0.50000   0.64681   0.67964   0.06333  Uiso   1.00
C2113  C     0.69285   0.50000   0.58680   0.06333  Uiso   1.00
C2114  C     0.63796   0.50000   0.58320   0.06333  Uiso   1.00
N2115  N     0.71696   0.50000   0.60139   0.06333  Uiso   1.00
H2116  H     0.68738   0.50000   0.55542   0.06333  Uiso   1.00
H2117  H     0.64681   0.50000   0.55464   0.06333  Uiso   1.00
C2118  C     0.55715   0.50000   0.58680   0.06333  Uiso   1.00
C2119  C     0.61204   0.50000   0.58320   0.06333  Uiso   1.00
N2120  N     0.53304   0.50000   0.60139   0.06333  Uiso   1.00
H2121  H     0.56262   0.50000   0.55542   0.06333  Uiso   1.00
H2122  H     0.60319   0.50000   0.55464   0.06333  Uiso   1.00
C2123  C     0.50000   0.55715   0.53820   0.06333  Uiso   1.00
C2124  C     0.50000   0.61204   0.54180   0.06333  Uiso   1.00
N2125  N     0.50000   0.53304   0.52361   0.06333  Uiso   1.00
H2126  H     0.50000   0.56262   0.56958   0.06333  Uiso   1.00
H2127  H     0.50000   0.60319   0.57036   0.06333  Uiso   1.00
C2128  C     0.50000   0.69285   0.53820   0.06333  Uiso   1.00
C2129  C     0.50000   0.63796   0.54180   0.06333  Uiso   1.00
N2130  N     0.50000   0.71696   0.52361   0.06333  Uiso   1.00
H2131  H     0.50000   0.68738   0.56958   0.06333  Uiso   1.00
H2132  H     0.50000   0.64681   0.57036   0.06333  Uiso   1.00
C2133  C     0.55715   0.50000   0.66320   0.06333  Uiso   1.00
C2134  C     0.61204   0.50000   0.66680   0.06333  Uiso   1.00
N2135  N     0.53304   0.50000   0.64861   0.06333  Uiso   1.00
H2136  H     0.56262   0.50000   0.69458   0.06333  Uiso   1.00
H2137  H     0.60319   0.50000   0.69536   0.06333  Uiso   1.00
C2138  C     0.69285   0.50000   0.66320   0.06333  Uiso   1.00
C2139  C     0.63796   0.50000   0.66680   0.06333  Uiso   1.00
N2140  N     0.71696   0.50000   0.64861   0.06333  Uiso   1.00
H2141  H     0.68738   0.50000   0.69458   0.06333  Uiso   1.00
H2142  H     0.64681   0.50000   0.69536   0.06333  Uiso   1.00
C2143  C     0.50000   0.57205   0.50000   0.06333  Uiso   1.00
C2144  C     0.50000   0.59909   0.50000   0.06333  Uiso   1.00
C2145  C     0.50000   0.67795   0.50000   0.06333  Uiso   1.00
C2146  C     0.50000   0.65091   0.50000   0.06333  Uiso   1.00
C2147  C     0.67795   0.50000   0.62500   0.06333  Uiso   1.00
C2148  C     0.65091   0.50000   0.62500   0.06333  Uiso   1.00
C2149  C     0.57205   0.50000   0.62500   0.06333  Uiso   1.00
C2150  C     0.59909   0.50000   0.62500   0.06333  Uiso   1.00
Fe2151 Fe    0.75000   0.50000   0.56250   0.06333  Uiso   1.00
Fe2152 Fe    0.75000   0.50000   0.68750   0.06333  Uiso   1.00
C2153  C     0.75000   0.55715   0.71180   0.06333  Uiso   1.00
C2154  C     0.75000   0.61204   0.70820   0.06333  Uiso   1.00
N2155  N     0.75000   0.53304   0.72639   0.06333  Uiso   1.00
H2156  H     0.75000   0.56262   0.68042   0.06333  Uiso   1.00
H2157  H     0.75000   0.60319   0.67964   0.06333  Uiso   1.00
C2158  C     0.75000   0.69285   0.71180   0.06333  Uiso   1.00
C2159  C     0.75000   0.63796   0.70820   0.06333  Uiso   1.00
N2160  N     0.75000   0.71696   0.72639   0.06333  Uiso   1.00
H2161  H     0.75000   0.68738   0.68042   0.06333  Uiso   1.00
H2162  H     0.75000   0.64681   0.67964   0.06333  Uiso   1.00
C2163  C     0.94285   0.50000   0.58680   0.06333  Uiso   1.00
C2164  C     0.88796   0.50000   0.58320   0.06333  Uiso   1.00
N2165  N     0.96696   0.50000   0.60139   0.06333  Uiso   1.00
H2166  H     0.93738   0.50000   0.55542   0.06333  Uiso   1.00
H2167  H     0.89681   0.50000   0.55464   0.06333  Uiso   1.00
C2168  C     0.80715   0.50000   0.58680   0.06333  Uiso   1.00
C2169  C     0.86204   0.50000   0.58320   0.06333  Uiso   1.00
N2170  N     0.78304   0.50000   0.60139   0.06333  Uiso   1.00
H2171  H     0.81262   0.50000   0.55542   0.06333  Uiso   1.00
H2172  H     0.85319   0.50000   0.55464   0.06333  Uiso   1.00
C2173  C     0.75000   0.55715   0.53820   0.06333  Uiso   1.00
C2174  C     0.75000   0.61204   0.54180   0.06333  Uiso   1.00
N2175  N     0.75000   0.53304   0.52361   0.06333  Uiso   1.00
H2176  H     0.75000   0.56262   0.56958   0.06333  Uiso   1.00
H2177  H     0.75000   0.60319   0.57036   0.06333  Uiso   1.00
C2178  C     0.75000   0.69285   0.53820   0.06333  Uiso   1.00
C2179  C     0.75000   0.63796   0.54180   0.06333  Uiso   1.00
N2180  N     0.75000   0.71696   0.52361   0.06333  Uiso   1.00
H2181  H     0.75000   0.68738   0.56958   0.06333  Uiso   1.00
H2182  H     0.75000   0.64681   0.57036   0.06333  Uiso   1.00
C2183  C     0.80715   0.50000   0.66320   0.06333  Uiso   1.00
C2184  C     0.86204   0.50000   0.66680   0.06333  Uiso   1.00
N2185  N     0.78304   0.50000   0.64861   0.06333  Uiso   1.00
H2186  H     0.81262   0.50000   0.69458   0.06333  Uiso   1.00
H2187  H     0.85319   0.50000   0.69536   0.06333  Uiso   1.00
C2188  C     0.94285   0.50000   0.66320   0.06333  Uiso   1.00
C2189  C     0.88796   0.50000   0.66680   0.06333  Uiso   1.00
N2190  N     0.96696   0.50000   0.64861   0.06333  Uiso   1.00
H2191  H     0.93738   0.50000   0.69458   0.06333  Uiso   1.00
H2192  H     0.89681   0.50000   0.69536   0.06333  Uiso   1.00
C2193  C     0.75000   0.57205   0.50000   0.06333  Uiso   1.00
C2194  C     0.75000   0.59909   0.50000   0.06333  Uiso   1.00
C2195  C     0.75000   0.67795   0.50000   0.06333  Uiso   1.00
C2196  C     0.75000   0.65091   0.50000   0.06333  Uiso   1.00
C2197  C     0.92795   0.50000   0.62500   0.06333  Uiso   1.00
C2198  C     0.90091   0.50000   0.62500   0.06333  Uiso   1.00
C2199  C     0.82205   0.50000   0.62500   0.06333  Uiso   1.00
C2200  C     0.84909   0.50000   0.62500   0.06333  Uiso   1.00
Fe2201 Fe    0.00000   0.75000   0.56250   0.06333  Uiso   1.00
Fe2202 Fe    0.00000   0.75000   0.68750   0.06333  Uiso   1.00
C2203  C     0.00000   0.80715   0.71180   0.06333  Uiso   1.00
C2204  C     0.00000   0.86204   0.70820   0.06333  Uiso   1.00
N2205  N     0.00000   0.78304   0.72639   0.06333  Uiso   1.00
H2206  H     0.00000   0.81262   0.68042   0.06333  Uiso   1.00
H2207  H     0.00000   0.85319   0.67964   0.06333  Uiso   1.00
C2208  C     0.00000   0.94285   0.71180   0.06333  Uiso   1.00
C2209  C     0.00000   0.88796   0.70820   0.06333  Uiso   1.00
N2210  N     0.00000   0.96696   0.72639   0.06333  Uiso   1.00
H2211  H     0.00000   0.93738   0.68042   0.06333  Uiso   1.00
H2212  H     0.00000   0.89681   0.67964   0.06333  Uiso   1.00
C2213  C     0.19285   0.75000   0.58680   0.06333  Uiso   1.00
C2214  C     0.13796   0.75000   0.58320   0.06333  Uiso   1.00
N2215  N     0.21696   0.75000   0.60139   0.06333  Uiso   1.00
H2216  H     0.18738   0.75000   0.55542   0.06333  Uiso   1.00
H2217  H     0.14681   0.75000   0.55464   0.06333  Uiso   1.00
C2218  C     0.05715   0.75000   0.58680   0.06333  Uiso   1.00
C2219  C     0.11204   0.75000   0.58320   0.06333  Uiso   1.00
N2220  N     0.03304   0.75000   0.60139   0.06333  Uiso   1.00
H2221  H     0.06262   0.75000   0.55542   0.06333  Uiso   1.00
H2222  H     0.10319   0.75000   0.55464   0.06333  Uiso   1.00
C2223  C     0.00000   0.80715   0.53820   0.06333  Uiso   1.00
C2224  C     0.00000   0.86204   0.54180   0.06333  Uiso   1.00
N2225  N     0.00000   0.78304   0.52361   0.06333  Uiso   1.00
H2226  H     0.00000   0.81262   0.56958   0.06333  Uiso   1.00
H2227  H     0.00000   0.85319   0.57036   0.06333  Uiso   1.00
C2228  C     0.00000   0.94285   0.53820   0.06333  Uiso   1.00
C2229  C     0.00000   0.88796   0.54180   0.06333  Uiso   1.00
N2230  N     0.00000   0.96696   0.52361   0.06333  Uiso   1.00
H2231  H     0.00000   0.93738   0.56958   0.06333  Uiso   1.00
H2232  H     0.00000   0.89681   0.57036   0.06333  Uiso   1.00
C2233  C     0.05715   0.75000   0.66320   0.06333  Uiso   1.00
C2234  C     0.11204   0.75000   0.66680   0.06333  Uiso   1.00
N2235  N     0.03304   0.75000   0.64861   0.06333  Uiso   1.00
H2236  H     0.06262   0.75000   0.69458   0.06333  Uiso   1.00
H2237  H     0.10319   0.75000   0.69536   0.06333  Uiso   1.00
C2238  C     0.19285   0.75000   0.66320   0.06333  Uiso   1.00
C2239  C     0.13796   0.75000   0.66680   0.06333  Uiso   1.00
N2240  N     0.21696   0.75000   0.64861   0.06333  Uiso   1.00
H2241  H     0.18738   0.75000   0.69458   0.06333  Uiso   1.00
H2242  H     0.14681   0.75000   0.69536   0.06333  Uiso   1.00
C2243  C     0.00000   0.82205   0.50000   0.06333  Uiso   1.00
C2244  C     0.00000   0.84909   0.50000   0.06333  Uiso   1.00
C2245  C     0.00000   0.92795   0.50000   0.06333  Uiso   1.00
C2246  C     0.00000   0.90091   0.50000   0.06333  Uiso   1.00
C2247  C     0.17795   0.75000   0.62500   0.06333  Uiso   1.00
C2248  C     0.15091   0.75000   0.62500   0.06333  Uiso   1.00
C2249  C     0.07205   0.75000   0.62500   0.06333  Uiso   1.00
C2250  C     0.09909   0.75000   0.62500   0.06333  Uiso   1.00
Fe2251 Fe    0.25000   0.75000   0.56250   0.06333  Uiso   1.00
Fe2252 Fe    0.25000   0.75000   0.68750   0.06333  Uiso   1.00
C2253  C     0.25000   0.80715   0.71180   0.06333  Uiso   1.00
C2254  C     0.25000   0.86204   0.70820   0.06333  Uiso   1.00
N2255  N     0.25000   0.78304   0.72639   0.06333  Uiso   1.00
H2256  H     0.25000   0.81262   0.68042   0.06333  Uiso   1.00
H2257  H     0.25000   0.85319   0.67964   0.06333  Uiso   1.00
C2258  C     0.25000   0.94285   0.71180   0.06333  Uiso   1.00
C2259  C     0.25000   0.88796   0.70820   0.06333  Uiso   1.00
N2260  N     0.25000   0.96696   0.72639   0.06333  Uiso   1.00
H2261  H     0.25000   0.93738   0.68042   0.06333  Uiso   1.00
H2262  H     0.25000   0.89681   0.67964   0.06333  Uiso   1.00
C2263  C     0.44285   0.75000   0.58680   0.06333  Uiso   1.00
C2264  C     0.38796   0.75000   0.58320   0.06333  Uiso   1.00
N2265  N     0.46696   0.75000   0.60139   0.06333  Uiso   1.00
H2266  H     0.43738   0.75000   0.55542   0.06333  Uiso   1.00
H2267  H     0.39681   0.75000   0.55464   0.06333  Uiso   1.00
C2268  C     0.30715   0.75000   0.58680   0.06333  Uiso   1.00
C2269  C     0.36204   0.75000   0.58320   0.06333  Uiso   1.00
N2270  N     0.28304   0.75000   0.60139   0.06333  Uiso   1.00
H2271  H     0.31262   0.75000   0.55542   0.06333  Uiso   1.00
H2272  H     0.35319   0.75000   0.55464   0.06333  Uiso   1.00
C2273  C     0.25000   0.80715   0.53820   0.06333  Uiso   1.00
C2274  C     0.25000   0.86204   0.54180   0.06333  Uiso   1.00
N2275  N     0.25000   0.78304   0.52361   0.06333  Uiso   1.00
H2276  H     0.25000   0.81262   0.56958   0.06333  Uiso   1.00
H2277  H     0.25000   0.85319   0.57036   0.06333  Uiso   1.00
C2278  C     0.25000   0.94285   0.53820   0.06333  Uiso   1.00
C2279  C     0.25000   0.88796   0.54180   0.06333  Uiso   1.00
N2280  N     0.25000   0.96696   0.52361   0.06333  Uiso   1.00
H2281  H     0.25000   0.93738   0.56958   0.06333  Uiso   1.00
H2282  H     0.25000   0.89681   0.57036   0.06333  Uiso   1.00
C2283  C     0.30715   0.75000   0.66320   0.06333  Uiso   1.00
C2284  C     0.36204   0.75000   0.66680   0.06333  Uiso   1.00
N2285  N     0.28304   0.75000   0.64861   0.06333  Uiso   1.00
H2286  H     0.31262   0.75000   0.69458   0.06333  Uiso   1.00
H2287  H     0.35319   0.75000   0.69536   0.06333  Uiso   1.00
C2288  C     0.44285   0.75000   0.66320   0.06333  Uiso   1.00
C2289  C     0.38796   0.75000   0.66680   0.06333  Uiso   1.00
N2290  N     0.46696   0.75000   0.64861   0.06333  Uiso   1.00
H2291  H     0.43738   0.75000   0.69458   0.06333  Uiso   1.00
H2292  H     0.39681   0.75000   0.69536   0.06333  Uiso   1.00
C2293  C     0.25000   0.82205   0.50000   0.06333  Uiso   1.00
C2294  C     0.25000   0.84909   0.50000   0.06333  Uiso   1.00
C2295  C     0.25000   0.92795   0.50000   0.06333  Uiso   1.00
C2296  C     0.25000   0.90091   0.50000   0.06333  Uiso   1.00
C2297  C     0.42795   0.75000   0.62500   0.06333  Uiso   1.00
C2298  C     0.40091   0.75000   0.62500   0.06333  Uiso   1.00
C2299  C     0.32205   0.75000   0.62500   0.06333  Uiso   1.00
C2300  C     0.34909   0.75000   0.62500   0.06333  Uiso   1.00
Fe2301 Fe    0.50000   0.75000   0.56250   0.06333  Uiso   1.00
Fe2302 Fe    0.50000   0.75000   0.68750   0.06333  Uiso   1.00
C2303  C     0.50000   0.80715   0.71180   0.06333  Uiso   1.00
C2304  C     0.50000   0.86204   0.70820   0.06333  Uiso   1.00
N2305  N     0.50000   0.78304   0.72639   0.06333  Uiso   1.00
H2306  H     0.50000   0.81262   0.68042   0.06333  Uiso   1.00
H2307  H     0.50000   0.85319   0.67964   0.06333  Uiso   1.00
C2308  C     0.50000   0.94285   0.71180   0.06333  Uiso   1.00
C2309  C     0.50000   0.88796   0.70820   0.06333  Uiso   1.00
N2310  N     0.50000   0.96696   0.72639   0.06333  Uiso   1.00
H2311  H     0.50000   0.93738   0.68042   0.06333  Uiso   1.00
H2312  H     0.50000   0.89681   0.67964   0.06333  Uiso   1.00
C2313  C     0.69285   0.75000   0.58680   0.06333  Uiso   1.00
C2314  C     0.63796   0.75000   0.58320   0.06333  Uiso   1.00
N2315  N     0.71696   0.75000   0.60139   0.06333  Uiso   1.00
H2316  H     0.68738   0.75000   0.55542   0.06333  Uiso   1.00
H2317  H     0.64681   0.75000   0.55464   0.06333  Uiso   1.00
C2318  C     0.55715   0.75000   0.58680   0.06333  Uiso   1.00
C2319  C     0.61204   0.75000   0.58320   0.06333  Uiso   1.00
N2320  N     0.53304   0.75000   0.60139   0.06333  Uiso   1.00
H2321  H     0.56262   0.75000   0.55542   0.06333  Uiso   1.00
H2322  H     0.60319   0.75000   0.55464   0.06333  Uiso   1.00
C2323  C     0.50000   0.80715   0.53820   0.06333  Uiso   1.00
C2324  C     0.50000   0.86204   0.54180   0.06333  Uiso   1.00
N2325  N     0.50000   0.78304   0.52361   0.06333  Uiso   1.00
H2326  H     0.50000   0.81262   0.56958   0.06333  Uiso   1.00
H2327  H     0.50000   0.85319   0.57036   0.06333  Uiso   1.00
C2328  C     0.50000   0.94285   0.53820   0.06333  Uiso   1.00
C2329  C     0.50000   0.88796   0.54180   0.06333  Uiso   1.00
N2330  N     0.50000   0.96696   0.52361   0.06333  Uiso   1.00
H2331  H     0.50000   0.93738   0.56958   0.06333  Uiso   1.00
H2332  H     0.50000   0.89681   0.57036   0.06333  Uiso   1.00
C2333  C     0.55715   0.75000   0.66320   0.06333  Uiso   1.00
C2334  C     0.61204   0.75000   0.66680   0.06333  Uiso   1.00
N2335  N     0.53304   0.75000   0.64861   0.06333  Uiso   1.00
H2336  H     0.56262   0.75000   0.69458   0.06333  Uiso   1.00
H2337  H     0.60319   0.75000   0.69536   0.06333  Uiso   1.00
C2338  C     0.69285   0.75000   0.66320   0.06333  Uiso   1.00
C2339  C     0.63796   0.75000   0.66680   0.06333  Uiso   1.00
N2340  N     0.71696   0.75000   0.64861   0.06333  Uiso   1.00
H2341  H     0.68738   0.75000   0.69458   0.06333  Uiso   1.00
H2342  H     0.64681   0.75000   0.69536   0.06333  Uiso   1.00
C2343  C     0.50000   0.82205   0.50000   0.06333  Uiso   1.00
C2344  C     0.50000   0.84909   0.50000   0.06333  Uiso   1.00
C2345  C     0.50000   0.92795   0.50000   0.06333  Uiso   1.00
C2346  C     0.50000   0.90091   0.50000   0.06333  Uiso   1.00
C2347  C     0.67795   0.75000   0.62500   0.06333  Uiso   1.00
C2348  C     0.65091   0.75000   0.62500   0.06333  Uiso   1.00
C2349  C     0.57205   0.75000   0.62500   0.06333  Uiso   1.00
C2350  C     0.59909   0.75000   0.62500   0.06333  Uiso   1.00
Fe2351 Fe    0.75000   0.75000   0.56250   0.06333  Uiso   1.00
Fe2352 Fe    0.75000   0.75000   0.68750   0.06333  Uiso   1.00
C2353  C     0.75000   0.80715   0.71180   0.06333  Uiso   1.00
C2354  C     0.75000   0.86204   0.70820   0.06333  Uiso   1.00
N2355  N     0.75000   0.78304   0.72639   0.06333  Uiso   1.00
H2356  H     0.75000   0.81262   0.68042   0.06333  Uiso   1.00
H2357  H     0.75000   0.85319   0.67964   0.06333  Uiso   1.00
C2358  C     0.75000   0.94285   0.71180   0.06333  Uiso   1.00
C2359  C     0.75000   0.88796   0.70820   0.06333  Uiso   1.00
N2360  N     0.75000   0.96696   0.72639   0.06333  Uiso   1.00
H2361  H     0.75000   0.93738   0.68042   0.06333  Uiso   1.00
H2362  H     0.75000   0.89681   0.67964   0.06333  Uiso   1.00
C2363  C     0.94285   0.75000   0.58680   0.06333  Uiso   1.00
C2364  C     0.88796   0.75000   0.58320   0.06333  Uiso   1.00
N2365  N     0.96696   0.75000   0.60139   0.06333  Uiso   1.00
H2366  H     0.93738   0.75000   0.55542   0.06333  Uiso   1.00
H2367  H     0.89681   0.75000   0.55464   0.06333  Uiso   1.00
C2368  C     0.80715   0.75000   0.58680   0.06333  Uiso   1.00
C2369  C     0.86204   0.75000   0.58320   0.06333  Uiso   1.00
N2370  N     0.78304   0.75000   0.60139   0.06333  Uiso   1.00
H2371  H     0.81262   0.75000   0.55542   0.06333  Uiso   1.00
H2372  H     0.85319   0.75000   0.55464   0.06333  Uiso   1.00
C2373  C     0.75000   0.80715   0.53820   0.06333  Uiso   1.00
C2374  C     0.75000   0.86204   0.54180   0.06333  Uiso   1.00
N2375  N     0.75000   0.78304   0.52361   0.06333  Uiso   1.00
H2376  H     0.75000   0.81262   0.56958   0.06333  Uiso   1.00
H2377  H     0.75000   0.85319   0.57036   0.06333  Uiso   1.00
C2378  C     0.75000   0.94285   0.53820   0.06333  Uiso   1.00
C2379  C     0.75000   0.88796   0.54180   0.06333  Uiso   1.00
N2380  N     0.75000   0.96696   0.52361   0.06333  Uiso   1.00
H2381  H     0.75000   0.93738   0.56958   0.06333  Uiso   1.00
H2382  H     0.75000   0.89681   0.57036   0.06333  Uiso   1.00
C2383  C     0.80715   0.75000   0.66320   0.06333  Uiso   1.00
C2384  C     0.86204   0.75000   0.66680   0.06333  Uiso   1.00
N2385  N     0.78304   0.75000   0.64861   0.06333  Uiso   1.00
H2386  H     0.81262   0.75000   0.69458   0.06333  Uiso   1.00
H2387  H     0.85319   0.75000   0.69536   0.06333  Uiso   1.00
C2388  C     0.94285   0.75000   0.66320   0.06333  Uiso   1.00
C2389  C     0.88796   0.75000   0.66680   0.06333  Uiso   1.00
N2390  N     0.96696   0.75000   0.64861   0.06333  Uiso   1.00
H2391  H     0.93738   0.75000   0.69458   0.06333  Uiso   1.00
H2392  H     0.89681   0.75000   0.69536   0.06333  Uiso   1.00
C2393  C     0.75000   0.82205   0.50000   0.06333  Uiso   1.00
C2394  C     0.75000   0.84909   0.50000   0.06333  Uiso   1.00
C2395  C     0.75000   0.92795   0.50000   0.06333  Uiso   1.00
C2396  C     0.75000   0.90091   0.50000   0.06333  Uiso   1.00
C2397  C     0.92795   0.75000   0.62500   0.06333  Uiso   1.00
C2398  C     0.90091   0.75000   0.62500   0.06333  Uiso   1.00
C2399  C     0.82205   0.75000   0.62500   0.06333  Uiso   1.00
C2400  C     0.84909   0.75000   0.62500   0.06333  Uiso   1.00
Fe2401 Fe    0.00000   0.00000   0.81250   0.06333  Uiso   1.00
Fe2402 Fe    0.00000   0.00000   0.93750   0.06333  Uiso   1.00
C2403  C     0.00000   0.05715   0.96180   0.06333  Uiso   1.00
C2404  C     0.00000   0.11204   0.95820   0.06333  Uiso   1.00
N2405  N     0.00000   0.03304   0.97639   0.06333  Uiso   1.00
H2406  H     0.00000   0.06262   0.93042   0.06333  Uiso   1.00
H2407  H     0.00000   0.10319   0.92964   0.06333  Uiso   1.00
C2408  C     0.00000   0.19285   0.96180   0.06333  Uiso   1.00
C2409  C     0.00000   0.13796   0.95820   0.06333  Uiso   1.00
N2410  N     0.00000   0.21696   0.97639   0.06333  Uiso   1.00
H2411  H     0.00000   0.18738   0.93042   0.06333  Uiso   1.00
H2412  H     0.00000   0.14681   0.92964   0.06333  Uiso   1.00
C2413  C     0.19285   0.00000   0.83680   0.06333  Uiso   1.00
C2414  C     0.13796   0.00000   0.83320   0.06333  Uiso   1.00
N2415  N     0.21696   0.00000   0.85139   0.06333  Uiso   1.00
H2416  H     0.18738   0.00000   0.80542   0.06333  Uiso   1.00
H2417  H     0.14681   0.00000   0.80464   0.06333  Uiso   1.00
C2418  C     0.05715   0.00000   0.83680   0.06333  Uiso   1.00
C2419  C     0.11204   0.00000   0.83320   0.06333  Uiso   1.00
N2420  N     0.03304   0.00000   0.85139   0.06333  Uiso   1.00
H2421  H     0.06262   0.00000   0.80542   0.06333  Uiso   1.00
H2422  H     0.10319   0.00000   0.80464   0.06333  Uiso   1.00
C2423  C     0.00000   0.05715   0.78820   0.06333  Uiso   1.00
C2424  C     0.00000   0.11204   0.79180   0.06333  Uiso   1.00
N2425  N     0.00000   0.03304   0.77361   0.06333  Uiso   1.00
H2426  H     0.00000   0.06262   0.81958   0.06333  Uiso   1.00
H2427  H     0.00000   0.10319   0.82036   0.06333  Uiso   1.00
C2428  C     0.00000   0.19285   0.78820   0.06333  Uiso   1.00
C2429  C     0.00000   0.13796   0.79180   0.06333  Uiso   1.00
N2430  N     0.00000   0.21696   0.77361   0.06333  Uiso   1.00
H2431  H     0.00000   0.18738   0.81958   0.06333  Uiso   1.00
H2432  H     0.00000   0.14681   0.82036   0.06333  Uiso   1.00
C2433  C     0.05715   0.00000   0.91320   0.06333  Uiso   1.00
C2434  C     0.11204   0.00000   0.91680   0.06333  Uiso   1.00
N2435  N     0.03304   0.00000   0.89861   0.06333  Uiso   1.00
H2436  H     0.06262   0.00000   0.94458   0.06333  Uiso   1.00
H2437  H     0.10319   0.00000   0.94536   0.06333  Uiso   1.00
C2438  C     0.19285   0.00000   0.91320   0.06333  Uiso   1.00
C2439  C     0.13796   0.00000   0.91680   0.06333  Uiso   1.00
N2440  N     0.21696   0.00000   0.89861   0.06333  Uiso   1.00
H2441  H     0.18738   0.00000   0.94458   0.06333  Uiso   1.00
H2442  H     0.14681   0.00000   0.94536   0.06333  Uiso   1.00
C2443  C     0.00000   0.07205   0.75000   0.06333  Uiso   1.00
C2444  C     0.00000   0.09909   0.75000   0.06333  Uiso   1.00
C2445  C     0.00000   0.17795   0.75000   0.06333  Uiso   1.00
C2446  C     0.00000   0.15091   0.75000   0.06333  Uiso   1.00
C2447  C     0.17795   0.00000   0.87500   0.06333  Uiso   1.00
C2448  C     0.15091   0.00000   0.87500   0.06333  Uiso   1.00
C2449  C     0.07205   0.00000   0.87500   0.06333  Uiso   1.00
C2450  C     0.09909   0.00000   0.87500   0.06333  Uiso   1.00
Fe2451 Fe    0.25000   0.00000   0.81250   0.06333  Uiso   1.00
Fe2452 Fe    0.25000   0.00000   0.93750   0.06333  Uiso   1.00
C2453  C     0.25000   0.05715   0.96180   0.06333  Uiso   1.00
C2454  C     0.25000   0.11204   0.95820   0.06333  Uiso   1.00
N2455  N     0.25000   0.03304   0.97639   0.06333  Uiso   1.00
H2456  H     0.25000   0.06262   0.93042   0.06333  Uiso   1.00
H2457  H     0.25000   0.10319   0.92964   0.06333  Uiso   1.00
C2458  C     0.25000   0.19285   0.96180   0.06333  Uiso   1.00
C2459  C     0.25000   0.13796   0.95820   0.06333  Uiso   1.00
N2460  N     0.25000   0.21696   0.97639   0.06333  Uiso   1.00
H2461  H     0.25000   0.18738   0.93042   0.06333  Uiso   1.00
H2462  H     0.25000   0.14681   0.92964   0.06333  Uiso   1.00
C2463  C     0.44285   0.00000   0.83680   0.06333  Uiso   1.00
C2464  C     0.38796   0.00000   0.83320   0.06333  Uiso   1.00
N2465  N     0.46696   0.00000   0.85139   0.06333  Uiso   1.00
H2466  H     0.43738   0.00000   0.80542   0.06333  Uiso   1.00
H2467  H     0.39681   0.00000   0.80464   0.06333  Uiso   1.00
C2468  C     0.30715   0.00000   0.83680   0.06333  Uiso   1.00
C2469  C     0.36204   0.00000   0.83320   0.06333  Uiso   1.00
N2470  N     0.28304   0.00000   0.85139   0.06333  Uiso   1.00
H2471  H     0.31262   0.00000   0.80542   0.06333  Uiso   1.00
H2472  H     0.35319   0.00000   0.80464   0.06333  Uiso   1.00
C2473  C     0.25000   0.05715   0.78820   0.06333  Uiso   1.00
C2474  C     0.25000   0.11204   0.79180   0.06333  Uiso   1.00
N2475  N     0.25000   0.03304   0.77361   0.06333  Uiso   1.00
H2476  H     0.25000   0.06262   0.81958   0.06333  Uiso   1.00
H2477  H     0.25000   0.10319   0.82036   0.06333  Uiso   1.00
C2478  C     0.25000   0.19285   0.78820   0.06333  Uiso   1.00
C2479  C     0.25000   0.13796   0.79180   0.06333  Uiso   1.00
N2480  N     0.25000   0.21696   0.77361   0.06333  Uiso   1.00
H2481  H     0.25000   0.18738   0.81958   0.06333  Uiso   1.00
H2482  H     0.25000   0.14681   0.82036   0.06333  Uiso   1.00
C2483  C     0.30715   0.00000   0.91320   0.06333  Uiso   1.00
C2484  C     0.36204   0.00000   0.91680   0.06333  Uiso   1.00
N2485  N     0.28304   0.00000   0.89861   0.06333  Uiso   1.00
H2486  H     0.31262   0.00000   0.94458   0.06333  Uiso   1.00
H2487  H     0.35319   0.00000   0.94536   0.06333  Uiso   1.00
C2488  C     0.44285   0.00000   0.91320   0.06333  Uiso   1.00
C2489  C     0.38796   0.00000   0.91680   0.06333  Uiso   1.00
N2490  N     0.46696   0.00000   0.89861   0.06333  Uiso   1.00
H2491  H     0.43738   0.00000   0.94458   0.06333  Uiso   1.00
H2492  H     0.39681   0.00000   0.94536   0.06333  Uiso   1.00
C2493  C     0.25000   0.07205   0.75000   0.06333  Uiso   1.00
C2494  C     0.25000   0.09909   0.75000   0.06333  Uiso   1.00
C2495  C     0.25000   0.17795   0.75000   0.06333  Uiso   1.00
C2496  C     0.25000   0.15091   0.75000   0.06333  Uiso   1.00
C2497  C     0.42795   0.00000   0.87500   0.06333  Uiso   1.00
C2498  C     0.40091   0.00000   0.87500   0.06333  Uiso   1.00
C2499  C     0.32205   0.00000   0.87500   0.06333  Uiso   1.00
C2500  C     0.34909   0.00000   0.87500   0.06333  Uiso   1.00
Fe2501 Fe    0.50000   0.00000   0.81250   0.06333  Uiso   1.00
Fe2502 Fe    0.50000   0.00000   0.93750   0.06333  Uiso   1.00
C2503  C     0.50000   0.05715   0.96180   0.06333  Uiso   1.00
C2504  C     0.50000   0.11204   0.95820   0.06333  Uiso   1.00
N2505  N     0.50000   0.03304   0.97639   0.06333  Uiso   1.00
H2506  H     0.50000   0.06262   0.93042   0.06333  Uiso   1.00
H2507  H     0.50000   0.10319   0.92964   0.06333  Uiso   1.00
C2508  C     0.50000   0.19285   0.96180   0.06333  Uiso   1.00
C2509  C     0.50000   0.13796   0.95820   0.06333  Uiso   1.00
N2510  N     0.50000   0.21696   0.97639   0.06333  Uiso   1.00
H2511  H     0.50000   0.18738   0.93042   0.06333  Uiso   1.00
H2512  H     0.50000   0.14681   0.92964   0.06333  Uiso   1.00
C2513  C     0.69285   0.00000   0.83680   0.06333  Uiso   1.00
C2514  C     0.63796   0.00000   0.83320   0.06333  Uiso   1.00
N2515  N     0.71696   0.00000   0.85139   0.06333  Uiso   1.00
H2516  H     0.68738   0.00000   0.80542   0.06333  Uiso   1.00
H2517  H     0.64681   0.00000   0.80464   0.06333  Uiso   1.00
C2518  C     0.55715   0.00000   0.83680   0.06333  Uiso   1.00
C2519  C     0.61204   0.00000   0.83320   0.06333  Uiso   1.00
N2520  N     0.53304   0.00000   0.85139   0.06333  Uiso   1.00
H2521  H     0.56262   0.00000   0.80542   0.06333  Uiso   1.00
H2522  H     0.60319   0.00000   0.80464   0.06333  Uiso   1.00
C2523  C     0.50000   0.05715   0.78820   0.06333  Uiso   1.00
C2524  C     0.50000   0.11204   0.79180   0.06333  Uiso   1.00
N2525  N     0.50000   0.03304   0.77361   0.06333  Uiso   1.00
H2526  H     0.50000   0.06262   0.81958   0.06333  Uiso   1.00
H2527  H     0.50000   0.10319   0.82036   0.06333  Uiso   1.00
C2528  C     0.50000   0.19285   0.78820   0.06333  Uiso   1.00
C2529  C     0.50000   0.13796   0.79180   0.06333  Uiso   1.00
N2530  N     0.50000   0.21696   0.77361   0.06333  Uiso   1.00
H2531  H     0.50000   0.18738   0.81958   0.06333  Uiso   1.00
H2532  H     0.50000   0.14681   0.82036   0.06333  Uiso   1.00
C2533  C     0.55715   0.00000   0.91320   0.06333  Uiso   1.00
C2534  C     0.61204   0.00000   0.91680   0.06333  Uiso   1.00
N2535  N     0.53304   0.00000   0.89861   0.06333  Uiso   1.00
H2536  H     0.56262   0.00000   0.94458   0.06333  Uiso   1.00
H2537  H     0.60319   0.00000   0.94536   0.06333  Uiso   1.00
C2538  C     0.69285   0.00000   0.91320   0.06333  Uiso   1.00
C2539  C     0.63796   0.00000   0.91680   0.06333  Uiso   1.00
N2540  N     0.71696   0.00000   0.89861   0.06333  Uiso   1.00
H2541  H     0.68738   0.00000   0.94458   0.06333  Uiso   1.00
H2542  H     0.64681   0.00000   0.94536   0.06333  Uiso   1.00
C2543  C     0.50000   0.07205   0.75000   0.06333  Uiso   1.00
C2544  C     0.50000   0.09909   0.75000   0.06333  Uiso   1.00
C2545  C     0.50000   0.17795   0.75000   0.06333  Uiso   1.00
C2546  C     0.50000   0.15091   0.75000   0.06333  Uiso   1.00
C2547  C     0.67795   0.00000   0.87500   0.06333  Uiso   1.00
C2548  C     0.65091   0.00000   0.87500   0.06333  Uiso   1.00
C2549  C     0.57205   0.00000   0.87500   0.06333  Uiso   1.00
C2550  C     0.59909   0.00000   0.87500   0.06333  Uiso   1.00
Fe2551 Fe    0.75000   0.00000   0.81250   0.06333  Uiso   1.00
Fe2552 Fe    0.75000   0.00000   0.93750   0.06333  Uiso   1.00
C2553  C     0.75000   0.05715   0.96180   0.06333  Uiso   1.00
C2554  C     0.75000   0.11204   0.95820   0.06333  Uiso   1.00
N2555  N     0.75000   0.03304   0.97639   0.06333  Uiso   1.00
H2556  H     0.75000   0.06262   0.93042   0.06333  Uiso   1.00
H2557  H     0.75000   0.10319   0.92964   0.06333  Uiso   1.00
C2558  C     0.75000   0.19285   0.96180   0.06333  Uiso   1.00
C2559  C     0.75000   0.13796   0.95820   0.06333  Uiso   1.00
N2560  N     0.75000   0.21696   0.97639   0.06333  Uiso   1.00
H2561  H     0.75000   0.18738   0.93042   0.06333  Uiso   1.00
H2562  H     0.75000   0.14681   0.92964   0.06333  Uiso   1.00
C2563  C     0.94285   0.00000   0.83680   0.06333  Uiso   1.00
C2564  C     0.88796   0.00000   0.83320   0.06333  Uiso   1.00
N2565  N     0.96696   0.00000   0.85139   0.06333  Uiso   1.00
H2566  H     0.93738   0.00000   0.80542   0.06333  Uiso   1.00
H2567  H     0.89681   0.00000   0.80464   0.06333  Uiso   1.00
C2568  C     0.80715   0.00000   0.83680   0.06333  Uiso   1.00
C2569  C     0.86204   0.00000   0.83320   0.06333  Uiso   1.00
N2570  N     0.78304   0.00000   0.85139   0.06333  Uiso   1.00
H2571  H     0.81262   0.00000   0.80542   0.06333  Uiso   1.00
H2572  H     0.85319   0.00000   0.80464   0.06333  Uiso   1.00
C2573  C     0.75000   0.05715   0.78820   0.06333  Uiso   1.00
C2574  C     0.75000   0.11204   0.79180   0.06333  Uiso   1.00
N2575  N     0.75000   0.03304   0.77361   0.06333  Uiso   1.00
H2576  H     0.75000   0.06262   0.81958   0.06333  Uiso   1.00
H2577  H     0.75000   0.10319   0.82036   0.06333  Uiso   1.00
C2578  C     0.75000   0.19285   0.78820   0.06333  Uiso   1.00
C2579  C     0.75000   0.13796   0.79180   0.06333  Uiso   1.00
N2580  N     0.75000   0.21696   0.77361   0.06333  Uiso   1.00
H2581  H     0.75000   0.18738   0.81958   0.06333  Uiso   1.00
H2582  H     0.75000   0.14681   0.82036   0.06333  Uiso   1.00
C2583  C     0.80715   0.00000   0.91320   0.06333  Uiso   1.00
C2584  C     0.86204   0.00000   0.91680   0.06333  Uiso   1.00
N2585  N     0.78304   0.00000   0.89861   0.06333  Uiso   1.00
H2586  H     0.81262   0.00000   0.94458   0.06333  Uiso   1.00
H2587  H     0.85319   0.00000   0.94536   0.06333  Uiso   1.00
C2588  C     0.94285   0.00000   0.91320   0.06333  Uiso   1.00
C2589  C     0.88796   0.00000   0.91680   0.06333  Uiso   1.00
N2590  N     0.96696   0.00000   0.89861   0.06333  Uiso   1.00
H2591  H     0.93738   0.00000   0.94458   0.06333  Uiso   1.00
H2592  H     0.89681   0.00000   0.94536   0.06333  Uiso   1.00
C2593  C     0.75000   0.07205   0.75000   0.06333  Uiso   1.00
C2594  C     0.75000   0.09909   0.75000   0.06333  Uiso   1.00
C2595  C     0.75000   0.17795   0.75000   0.06333  Uiso   1.00
C2596  C     0.75000   0.15091   0.75000   0.06333  Uiso   1.00
C2597  C     0.92795   0.00000   0.87500   0.06333  Uiso   1.00
C2598  C     0.90091   0.00000   0.87500   0.06333  Uiso   1.00
C2599  C     0.82205   0.00000   0.87500   0.06333  Uiso   1.00
C2600  C     0.84909   0.00000   0.87500   0.06333  Uiso   1.00
Fe2601 Fe    0.00000   0.25000   0.81250   0.06333  Uiso   1.00
Fe2602 Fe    0.00000   0.25000   0.93750   0.06333  Uiso   1.00
C2603  C     0.00000   0.30715   0.96180   0.06333  Uiso   1.00
C2604  C     0.00000   0.36204   0.95820   0.06333  Uiso   1.00
N2605  N     0.00000   0.28304   0.97639   0.06333  Uiso   1.00
H2606  H     0.00000   0.31262   0.93042   0.06333  Uiso   1.00
H2607  H     0.00000   0.35319   0.92964   0.06333  Uiso   1.00
C2608  C     0.00000   0.44285   0.96180   0.06333  Uiso   1.00
C2609  C     0.00000   0.38796   0.95820   0.06333  Uiso   1.00
N2610  N     0.00000   0.46696   0.97639   0.06333  Uiso   1.00
H2611  H     0.00000   0.43738   0.93042   0.06333  Uiso   1.00
H2612  H     0.00000   0.39681   0.92964   0.06333  Uiso   1.00
C2613  C     0.19285   0.25000   0.83680   0.06333  Uiso   1.00
C2614  C     0.13796   0.25000   0.83320   0.06333  Uiso   1.00
N2615  N     0.21696   0.25000   0.85139   0.06333  Uiso   1.00
H2616  H     0.18738   0.25000   0.80542   0.06333  Uiso   1.00
H2617  H     0.14681   0.25000   0.80464   0.06333  Uiso   1.00
C2618  C     0.05715   0.25000   0.83680   0.06333  Uiso   1.00
C2619  C     0.11204   0.25000   0.83320   0.06333  Uiso   1.00
N2620  N     0.03304   0.25000   0.85139   0.06333  Uiso   1.00
H2621  H     0.06262   0.25000   0.80542   0.06333  Uiso   1.00
H2622  H     0.10319   0.25000   0.80464   0.06333  Uiso   1.00
C2623  C     0.00000   0.30715   0.78820   0.06333  Uiso   1.00
C2624  C     0.00000   0.36204   0.79180   0.06333  Uiso   1.00
N2625  N     0.00000   0.28304   0.77361   0.06333  Uiso   1.00
H2626  H     0.00000   0.31262   0.81958   0.06333  Uiso   1.00
H2627  H     0.00000   0.35319   0.82036   0.06333  Uiso   1.00
C2628  C     0.00000   0.44285   0.78820   0.06333  Uiso   1.00
C2629  C     0.00000   0.38796   0.79180   0.06333  Uiso   1.00
N2630  N     0.00000   0.46696   0.77361   0.06333  Uiso   1.00
H2631  H     0.00000   0.43738   0.81958   0.06333  Uiso   1.00
H2632  H     0.00000   0.39681   0.82036   0.06333  Uiso   1.00
C2633  C     0.05715   0.25000   0.91320   0.06333  Uiso   1.00
C2634  C     0.11204   0.25000   0.91680   0.06333  Uiso   1.00
N2635  N     0.03304   0.25000   0.89861   0.06333  Uiso   1.00
H2636  H     0.06262   0.25000   0.94458   0.06333  Uiso   1.00
H2637  H     0.10319   0.25000   0.94536   0.06333  Uiso   1.00
C2638  C     0.19285   0.25000   0.91320   0.06333  Uiso   1.00
C2639  C     0.13796   0.25000   0.91680   0.06333  Uiso   1.00
N2640  N     0.21696   0.25000   0.89861   0.06333  Uiso   1.00
H2641  H     0.18738   0.25000   0.94458   0.06333  Uiso   1.00
H2642  H     0.14681   0.25000   0.94536   0.06333  Uiso   1.00
C2643  C     0.00000   0.32205   0.75000   0.06333  Uiso   1.00
C2644  C     0.00000   0.34909   0.75000   0.06333  Uiso   1.00
C2645  C     0.00000   0.42795   0.75000   0.06333  Uiso   1.00
C2646  C     0.00000   0.40091   0.75000   0.06333  Uiso   1.00
C2647  C     0.17795   0.25000   0.87500   0.06333  Uiso   1.00
C2648  C     0.15091   0.25000   0.87500   0.06333  Uiso   1.00
C2649  C     0.07205   0.25000   0.87500   0.06333  Uiso   1.00
C2650  C     0.09909   0.25000   0.87500   0.06333  Uiso   1.00
Fe2651 Fe    0.25000   0.25000   0.81250   0.06333  Uiso   1.00
Fe2652 Fe    0.25000   0.25000   0.93750   0.06333  Uiso   1.00
C2653  C     0.25000   0.30715   0.96180   0.06333  Uiso   1.00
C2654  C     0.25000   0.36204   0.95820   0.06333  Uiso   1.00
N2655  N     0.25000   0.28304   0.97639   0.06333  Uiso   1.00
H2656  H     0.25000   0.31262   0.93042   0.06333  Uiso   1.00
H2657  H     0.25000   0.35319   0.92964   0.06333  Uiso   1.00
C2658  C     0.25000   0.44285   0.96180   0.06333  Uiso   1.00
C2659  C     0.25000   0.38796   0.95820   0.06333  Uiso   1.00
N2660  N     0.25000   0.46696   0.97639   0.06333  Uiso   1.00
H2661  H     0.25000   0.43738   0.93042   0.06333  Uiso   1.00
H2662  H     0.25000   0.39681   0.92964   0.06333  Uiso   1.00
C2663  C     0.44285   0.25000   0.83680   0.06333  Uiso   1.00
C2664  C     0.38796   0.25000   0.83320   0.06333  Uiso   1.00
N2665  N     0.46696   0.25000   0.85139   0.06333  Uiso   1.00
H2666  H     0.43738   0.25000   0.80542   0.06333  Uiso   1.00
H2667  H     0.39681   0.25000   0.80464   0.06333  Uiso   1.00
C2668  C     0.30715   0.25000   0.83680   0.06333  Uiso   1.00
C2669  C     0.36204   0.25000   0.83320   0.06333  Uiso   1.00
N2670  N     0.28304   0.25000   0.85139   0.06333  Uiso   1.00
H2671  H     0.31262   0.25000   0.80542   0.06333  Uiso   1.00
H2672  H     0.35319   0.25000   0.80464   0.06333  Uiso   1.00
C2673  C     0.25000   0.30715   0.78820   0.06333  Uiso   1.00
C2674  C     0.25000   0.36204   0.79180   0.06333  Uiso   1.00
N2675  N     0.25000   0.28304   0.77361   0.06333  Uiso   1.00
H2676  H     0.25000   0.31262   0.81958   0.06333  Uiso   1.00
H2677  H     0.25000   0.35319   0.82036   0.06333  Uiso   1.00
C2678  C     0.25000   0.44285   0.78820   0.06333  Uiso   1.00
C2679  C     0.25000   0.38796   0.79180   0.06333  Uiso   1.00
N2680  N     0.25000   0.46696   0.77361   0.06333  Uiso   1.00
H2681  H     0.25000   0.43738   0.81958   0.06333  Uiso   1.00
H2682  H     0.25000   0.39681   0.82036   0.06333  Uiso   1.00
C2683  C     0.30715   0.25000   0.91320   0.06333  Uiso   1.00
C2684  C     0.36204   0.25000   0.91680   0.06333  Uiso   1.00
N2685  N     0.28304   0.25000   0.89861   0.06333  Uiso   1.00
H2686  H     0.31262   0.25000   0.94458   0.06333  Uiso   1.00
H2687  H     0.35319   0.25000   0.94536   0.06333  Uiso   1.00
C2688  C     0.44285   0.25000   0.91320   0.06333  Uiso   1.00
C2689  C     0.38796   0.25000   0.91680   0.06333  Uiso   1.00
N2690  N     0.46696   0.25000   0.89861   0.06333  Uiso   1.00
H2691  H     0.43738   0.25000   0.94458   0.06333  Uiso   1.00
H2692  H     0.39681   0.25000   0.94536   0.06333  Uiso   1.00
C2693  C     0.25000   0.32205   0.75000   0.06333  Uiso   1.00
C2694  C     0.25000   0.34909   0.75000   0.06333  Uiso   1.00
C2695  C     0.25000   0.42795   0.75000   0.06333  Uiso   1.00
C2696  C     0.25000   0.40091   0.75000   0.06333  Uiso   1.00
C2697  C     0.42795   0.25000   0.87500   0.06333  Uiso   1.00
C2698  C     0.40091   0.25000   0.87500   0.06333  Uiso   1.00
C2699  C     0.32205   0.25000   0.87500   0.06333  Uiso   1.00
C2700  C     0.34909   0.25000   0.87500   0.06333  Uiso   1.00
Fe2701 Fe    0.50000   0.25000   0.81250   0.06333  Uiso   1.00
Fe2702 Fe    0.50000   0.25000   0.93750   0.06333  Uiso   1.00
C2703  C     0.50000   0.30715   0.96180   0.06333  Uiso   1.00
C2704  C     0.50000   0.36204   0.95820   0.06333  Uiso   1.00
N2705  N     0.50000   0.28304   0.97639   0.06333  Uiso   1.00
H2706  H     0.50000   0.31262   0.93042   0.06333  Uiso   1.00
H2707  H     0.50000   0.35319   0.92964   0.06333  Uiso   1.00
C2708  C     0.50000   0.44285   0.96180   0.06333  Uiso   1.00
C2709  C     0.50000   0.38796   0.95820   0.06333  Uiso   1.00
N2710  N     0.50000   0.46696   0.97639   0.06333  Uiso   1.00
H2711  H     0.50000   0.43738   0.93042   0.06333  Uiso   1.00
H2712  H     0.50000   0.39681   0.92964   0.06333  Uiso   1.00
C2713  C     0.69285   0.25000   0.83680   0.06333  Uiso   1.00
C2714  C     0.63796   0.25000   0.83320   0.06333  Uiso   1.00
N2715  N     0.71696   0.25000   0.85139   0.06333  Uiso   1.00
H2716  H     0.68738   0.25000   0.80542   0.06333  Uiso   1.00
H2717  H     0.64681   0.25000   0.80464   0.06333  Uiso   1.00
C2718  C     0.55715   0.25000   0.83680   0.06333  Uiso   1.00
C2719  C     0.61204   0.25000   0.83320   0.06333  Uiso   1.00
N2720  N     0.53304   0.25000   0.85139   0.06333  Uiso   1.00
H2721  H     0.56262   0.25000   0.80542   0.06333  Uiso   1.00
H2722  H     0.60319   0.25000   0.80464   0.06333  Uiso   1.00
C2723  C     0.50000   0.30715   0.78820   0.06333  Uiso   1.00
C2724  C     0.50000   0.36204   0.79180   0.06333  Uiso   1.00
N2725  N     0.50000   0.28304   0.77361   0.06333  Uiso   1.00
H2726  H     0.50000   0.31262   0.81958   0.06333  Uiso   1.00
H2727  H     0.50000   0.35319   0.82036   0.06333  Uiso   1.00
C2728  C     0.50000   0.44285   0.78820   0.06333  Uiso   1.00
C2729  C     0.50000   0.38796   0.79180   0.06333  Uiso   1.00
N2730  N     0.50000   0.46696   0.77361   0.06333  Uiso   1.00
H2731  H     0.50000   0.43738   0.81958   0.06333  Uiso   1.00
H2732  H     0.50000   0.39681   0.82036   0.06333  Uiso   1.00
C2733  C     0.55715   0.25000   0.91320   0.06333  Uiso   1.00
C2734  C     0.61204   0.25000   0.91680   0.06333  Uiso   1.00
N2735  N     0.53304   0.25000   0.89861   0.06333  Uiso   1.00
H2736  H     0.56262   0.25000   0.94458   0.06333  Uiso   1.00
H2737  H     0.60319   0.25000   0.94536   0.06333  Uiso   1.00
C2738  C     0.69285   0.25000   0.91320   0.06333  Uiso   1.00
C2739  C     0.63796   0.25000   0.91680   0.06333  Uiso   1.00
N2740  N     0.71696   0.25000   0.89861   0.06333  Uiso   1.00
H2741  H     0.68738   0.25000   0.94458   0.06333  Uiso   1.00
H2742  H     0.64681   0.25000   0.94536   0.06333  Uiso   1.00
C2743  C     0.50000   0.32205   0.75000   0.06333  Uiso   1.00
C2744  C     0.50000   0.34909   0.75000   0.06333  Uiso   1.00
C2745  C     0.50000   0.42795   0.75000   0.06333  Uiso   1.00
C2746  C     0.50000   0.40091   0.75000   0.06333  Uiso   1.00
C2747  C     0.67795   0.25000   0.87500   0.06333  Uiso   1.00
C2748  C     0.65091   0.25000   0.87500   0.06333  Uiso   1.00
C2749  C     0.57205   0.25000   0.87500   0.06333  Uiso   1.00
C2750  C     0.59909   0.25000   0.87500   0.06333  Uiso   1.00
Fe2751 Fe    0.75000   0.25000   0.81250   0.06333  Uiso   1.00
Fe2752 Fe    0.75000   0.25000   0.93750   0.06333  Uiso   1.00
C2753  C     0.75000   0.30715   0.96180   0.06333  Uiso   1.00
C2754  C     0.75000   0.36204   0.95820   0.06333  Uiso   1.00
N2755  N     0.75000   0.28304   0.97639   0.06333  Uiso   1.00
H2756  H     0.75000   0.31262   0.93042   0.06333  Uiso   1.00
H2757  H     0.75000   0.35319   0.92964   0.06333  Uiso   1.00
C2758  C     0.75000   0.44285   0.96180   0.06333  Uiso   1.00
C2759  C     0.75000   0.38796   0.95820   0.06333  Uiso   1.00
N2760  N     0.75000   0.46696   0.97639   0.06333  Uiso   1.00
H2761  H     0.75000   0.43738   0.93042   0.06333  Uiso   1.00
H2762  H     0.75000   0.39681   0.92964   0.06333  Uiso   1.00
C2763  C     0.94285   0.25000   0.83680   0.06333  Uiso   1.00
C2764  C     0.88796   0.25000   0.83320   0.06333  Uiso   1.00
N2765  N     0.96696   0.25000   0.85139   0.06333  Uiso   1.00
H2766  H     0.93738   0.25000   0.80542   0.06333  Uiso   1.00
H2767  H     0.89681   0.25000   0.80464   0.06333  Uiso   1.00
C2768  C     0.80715   0.25000   0.83680   0.06333  Uiso   1.00
C2769  C     0.86204   0.25000   0.83320   0.06333  Uiso   1.00
N2770  N     0.78304   0.25000   0.85139   0.06333  Uiso   1.00
H2771  H     0.81262   0.25000   0.80542   0.06333  Uiso   1.00
H2772  H     0.85319   0.25000   0.80464   0.06333  Uiso   1.00
C2773  C     0.75000   0.30715   0.78820   0.06333  Uiso   1.00
C2774  C     0.75000   0.36204   0.79180   0.06333  Uiso   1.00
N2775  N     0.75000   0.28304   0.77361   0.06333  Uiso   1.00
H2776  H     0.75000   0.31262   0.81958   0.06333  Uiso   1.00
H2777  H     0.75000   0.35319   0.82036   0.06333  Uiso   1.00
C2778  C     0.75000   0.44285   0.78820   0.06333  Uiso   1.00
C2779  C     0.75000   0.38796   0.79180   0.06333  Uiso   1.00
N2780  N     0.75000   0.46696   0.77361   0.06333  Uiso   1.00
H2781  H     0.75000   0.43738   0.81958   0.06333  Uiso   1.00
H2782  H     0.75000   0.39681   0.82036   0.06333  Uiso   1.00
C2783  C     0.80715   0.25000   0.91320   0.06333  Uiso   1.00
C2784  C     0.86204   0.25000   0.91680   0.06333  Uiso   1.00
N2785  N     0.78304   0.25000   0.89861   0.06333  Uiso   1.00
H2786  H     0.81262   0.25000   0.94458   0.06333  Uiso   1.00
H2787  H     0.85319   0.25000   0.94536   0.06333  Uiso   1.00
C2788  C     0.94285   0.25000   0.91320   0.06333  Uiso   1.00
C2789  C     0.88796   0.25000   0.91680   0.06333  Uiso   1.00
N2790  N     0.96696   0.25000   0.89861   0.06333  Uiso   1.00
H2791  H     0.93738   0.25000   0.94458   0.06333  Uiso   1.00
H2792  H     0.89681   0.25000   0.94536   0.06333  Uiso   1.00
C2793  C     0.75000   0.32205   0.75000   0.06333  Uiso   1.00
C2794  C     0.75000   0.34909   0.75000   0.06333  Uiso   1.00
C2795  C     0.75000   0.42795   0.75000   0.06333  Uiso   1.00
C2796  C     0.75000   0.40091   0.75000   0.06333  Uiso   1.00
C2797  C     0.92795   0.25000   0.87500   0.06333  Uiso   1.00
C2798  C     0.90091   0.25000   0.87500   0.06333  Uiso   1.00
C2799  C     0.82205   0.25000   0.87500   0.06333  Uiso   1.00
C2800  C     0.84909   0.25000   0.87500   0.06333  Uiso   1.00
Fe2801 Fe    0.00000   0.50000   0.81250   0.06333  Uiso   1.00
Fe2802 Fe    0.00000   0.50000   0.93750   0.06333  Uiso   1.00
C2803  C     0.00000   0.55715   0.96180   0.06333  Uiso   1.00
C2804  C     0.00000   0.61204   0.95820   0.06333  Uiso   1.00
N2805  N     0.00000   0.53304   0.97639   0.06333  Uiso   1.00
H2806  H     0.00000   0.56262   0.93042   0.06333  Uiso   1.00
H2807  H     0.00000   0.60319   0.92964   0.06333  Uiso   1.00
C2808  C     0.00000   0.69285   0.96180   0.06333  Uiso   1.00
C2809  C     0.00000   0.63796   0.95820   0.06333  Uiso   1.00
N2810  N     0.00000   0.71696   0.97639   0.06333  Uiso   1.00
H2811  H     0.00000   0.68738   0.93042   0.06333  Uiso   1.00
H2812  H     0.00000   0.64681   0.92964   0.06333  Uiso   1.00
C2813  C     0.19285   0.50000   0.83680   0.06333  Uiso   1.00
C2814  C     0.13796   0.50000   0.83320   0.06333  Uiso   1.00
N2815  N     0.21696   0.50000   0.85139   0.06333  Uiso   1.00
H2816  H     0.18738   0.50000   0.80542   0.06333  Uiso   1.00
H2817  H     0.14681   0.50000   0.80464   0.06333  Uiso   1.00
C2818  C     0.05715   0.50000   0.83680   0.06333  Uiso   1.00
C2819  C     0.11204   0.50000   0.83320   0.06333  Uiso   1.00
N2820  N     0.03304   0.50000   0.85139   0.06333  Uiso   1.00
H2821  H     0.06262   0.50000   0.80542   0.06333  Uiso   1.00
H2822  H     0.10319   0.50000   0.80464   0.06333  Uiso   1.00
C2823  C     0.00000   0.55715   0.78820   0.06333  Uiso   1.00
C2824  C     0.00000   0.61204   0.79180   0.06333  Uiso   1.00
N2825  N     0.00000   0.53304   0.77361   0.06333  Uiso   1.00
H2826  H     0.00000   0.56262   0.81958   0.06333  Uiso   1.00
H2827  H     0.00000   0.60319   0.82036   0.06333  Uiso   1.00
C2828  C     0.00000   0.69285   0.78820   0.06333  Uiso   1.00
C2829  C     0.00000   0.63796   0.79180   0.06333  Uiso   1.00
N2830  N     0.00000   0.71696   0.77361   0.06333  Uiso   1.00
H2831  H     0.00000   0.68738   0.81958   0.06333  Uiso   1.00
H2832  H     0.00000   0.64681   0.82036   0.06333  Uiso   1.00
C2833  C     0.05715   0.50000   0.91320   0.06333  Uiso   1.00
C2834  C     0.11204   0.50000   0.91680   0.06333  Uiso   1.00
N2835  N     0.03304   0.50000   0.89861   0.06333  Uiso   1.00
H2836  H     0.06262   0.50000   0.94458   0.06333  Uiso   1.00
H2837  H     0.10319   0.50000   0.94536   0.06333  Uiso   1.00
C2838  C     0.19285   0.50000   0.91320   0.06333  Uiso   1.00
C2839  C     0.13796   0.50000   0.91680   0.06333  Uiso   1.00
N2840  N     0.21696   0.50000   0.89861   0.06333  Uiso   1.00
H2841  H     0.18738   0.50000   0.94458   0.06333  Uiso   1.00
H2842  H     0.14681   0.50000   0.94536   0.06333  Uiso   1.00
C2843  C     0.00000   0.57205   0.75000   0.06333  Uiso   1.00
C2844  C     0.00000   0.59909   0.75000   0.06333  Uiso   1.00
C2845  C     0.00000   0.67795   0.75000   0.06333  Uiso   1.00
C2846  C     0.00000   0.65091   0.75000   0.06333  Uiso   1.00
C2847  C     0.17795   0.50000   0.87500   0.06333  Uiso   1.00
C2848  C     0.15091   0.50000   0.87500   0.06333  Uiso   1.00
C2849  C     0.07205   0.50000   0.87500   0.06333  Uiso   1.00
C2850  C     0.09909   0.50000   0.87500   0.06333  Uiso   1.00
Fe2851 Fe    0.25000   0.50000   0.81250   0.06333  Uiso   1.00
Fe2852 Fe    0.25000   0.50000   0.93750   0.06333  Uiso   1.00
C2853  C     0.25000   0.55715   0.96180   0.06333  Uiso   1.00
C2854  C     0.25000   0.61204   0.95820   0.06333  Uiso   1.00
N2855  N     0.25000   0.53304   0.97639   0.06333  Uiso   1.00
H2856  H     0.25000   0.56262   0.93042   0.06333  Uiso   1.00
H2857  H     0.25000   0.60319   0.92964   0.06333  Uiso   1.00
C2858  C     0.25000   0.69285   0.96180   0.06333  Uiso   1.00
C2859  C     0.25000   0.63796   0.95820   0.06333  Uiso   1.00
N2860  N     0.25000   0.71696   0.97639   0.06333  Uiso   1.00
H2861  H     0.25000   0.68738   0.93042   0.06333  Uiso   1.00
H2862  H     0.25000   0.64681   0.92964   0.06333  Uiso   1.00
C2863  C     0.44285   0.50000   0.83680   0.06333  Uiso   1.00
C2864  C     0.38796   0.50000   0.83320   0.06333  Uiso   1.00
N2865  N     0.46696   0.50000   0.85139   0.06333  Uiso   1.00
H2866  H     0.43738   0.50000   0.80542   0.06333  Uiso   1.00
H2867  H     0.39681   0.50000   0.80464   0.06333  Uiso   1.00
C2868  C     0.30715   0.50000   0.83680   0.06333  Uiso   1.00
C2869  C     0.36204   0.50000   0.83320   0.06333  Uiso   1.00
N2870  N     0.28304   0.50000   0.85139   0.06333  Uiso   1.00
H2871  H     0.31262   0.50000   0.80542   0.06333  Uiso   1.00
H2872  H     0.35319   0.50000   0.80464   0.06333  Uiso   1.00
C2873  C     0.25000   0.55715   0.78820   0.06333  Uiso   1.00
C2874  C     0.25000   0.61204   0.79180   0.06333  Uiso   1.00
N2875  N     0.25000   0.53304   0.77361   0.06333  Uiso   1.00
H2876  H     0.25000   0.56262   0.81958   0.06333  Uiso   1.00
H2877  H     0.25000   0.60319   0.82036   0.06333  Uiso   1.00
C2878  C     0.25000   0.69285   0.78820   0.06333  Uiso   1.00
C2879  C     0.25000   0.63796   0.79180   0.06333  Uiso   1.00
N2880  N     0.25000   0.71696   0.77361   0.06333  Uiso   1.00
H2881  H     0.25000   0.68738   0.81958   0.06333  Uiso   1.00
H2882  H     0.25000   0.64681   0.82036   0.06333  Uiso   1.00
C2883  C     0.30715   0.50000   0.91320   0.06333  Uiso   1.00
C2884  C     0.36204   0.50000   0.91680   0.06333  Uiso   1.00
N2885  N     0.28304   0.50000   0.89861   0.06333  Uiso   1.00
H2886  H     0.31262   0.50000   0.94458   0.06333  Uiso   1.00
H2887  H     0.35319   0.50000   0.94536   0.06333  Uiso   1.00
C2888  C     0.44285   0.50000   0.91320   0.06333  Uiso   1.00
C2889  C     0.38796   0.50000   0.91680   0.06333  Uiso   1.00
N2890  N     0.46696   0.50000   0.89861   0.06333  Uiso   1.00
H2891  H     0.43738   0.50000   0.94458   0.06333  Uiso   1.00
H2892  H     0.39681   0.50000   0.94536   0.06333  Uiso   1.00
C2893  C     0.25000   0.57205   0.75000   0.06333  Uiso   1.00
C2894  C     0.25000   0.59909   0.75000   0.06333  Uiso   1.00
C2895  C     0.25000   0.67795   0.75000   0.06333  Uiso   1.00
C2896  C     0.25000   0.65091   0.75000   0.06333  Uiso   1.00
C2897  C     0.42795   0.50000   0.87500   0.06333  Uiso   1.00
C2898  C     0.40091   0.50000   0.87500   0.06333  Uiso   1.00
C2899  C     0.32205   0.50000   0.87500   0.06333  Uiso   1.00
C2900  C     0.34909   0.50000   0.87500   0.06333  Uiso   1.00
Fe2901 Fe    0.50000   0.50000   0.81250   0.06333  Uiso   1.00
Fe2902 Fe    0.50000   0.50000   0.93750   0.06333  Uiso   1.00
C2903  C     0.50000   0.55715   0.96180   0.06333  Uiso   1.00
C2904  C     0.50000   0.61204   0.95820   0.06333  Uiso   1.00
N2905  N     0.50000   0.53304   0.97639   0.06333  Uiso   1.00
H2906  H     0.50000   0.56262   0.93042   0.06333  Uiso   1.00
H2907  H     0.50000   0.60319   0.92964   0.06333  Uiso   1.00
C2908  C     0.50000   0.69285   0.96180   0.06333  Uiso   1.00
C2909  C     0.50000   0.63796   0.95820   0.06333  Uiso   1.00
N2910  N     0.50000   0.71696   0.97639   0.06333  Uiso   1.00
H2911  H     0.50000   0.68738   0.93042   0.06333  Uiso   1.00
H2912  H     0.50000   0.64681   0.92964   0.06333  Uiso   1.00
C2913  C     0.69285   0.50000   0.83680   0.06333  Uiso   1.00
C2914  C     0.63796   0.50000   0.83320   0.06333  Uiso   1.00
N2915  N     0.71696   0.50000   0.85139   0.06333  Uiso   1.00
H2916  H     0.68738   0.50000   0.80542   0.06333  Uiso   1.00
H2917  H     0.64681   0.50000   0.80464   0.06333  Uiso   1.00
C2918  C     0.55715   0.50000   0.83680   0.06333  Uiso   1.00
C2919  C     0.61204   0.50000   0.83320   0.06333  Uiso   1.00
N2920  N     0.53304   0.50000   0.85139   0.06333  Uiso   1.00
H2921  H     0.56262   0.50000   0.80542   0.06333  Uiso   1.00
H2922  H     0.60319   0.50000   0.80464   0.06333  Uiso   1.00
C2923  C     0.50000   0.55715   0.78820   0.06333  Uiso   1.00
C2924  C     0.50000   0.61204   0.79180   0.06333  Uiso   1.00
N2925  N     0.50000   0.53304   0.77361   0.06333  Uiso   1.00
H2926  H     0.50000   0.56262   0.81958   0.06333  Uiso   1.00
H2927  H     0.50000   0.60319   0.82036   0.06333  Uiso   1.00
C2928  C     0.50000   0.69285   0.78820   0.06333  Uiso   1.00
C2929  C     0.50000   0.63796   0.79180   0.06333  Uiso   1.00
N2930  N     0.50000   0.71696   0.77361   0.06333  Uiso   1.00
H2931  H     0.50000   0.68738   0.81958   0.06333  Uiso   1.00
H2932  H     0.50000   0.64681   0.82036   0.06333  Uiso   1.00
C2933  C     0.55715   0.50000   0.91320   0.06333  Uiso   1.00
C2934  C     0.61204   0.50000   0.91680   0.06333  Uiso   1.00
N2935  N     0.53304   0.50000   0.89861   0.06333  Uiso   1.00
H2936  H     0.56262   0.50000   0.94458   0.06333  Uiso   1.00
H2937  H     0.60319   0.50000   0.94536   0.06333  Uiso   1.00
C2938  C     0.69285   0.50000   0.91320   0.06333  Uiso   1.00
C2939  C     0.63796   0.50000   0.91680   0.06333  Uiso   1.00
N2940  N     0.71696   0.50000   0.89861   0.06333  Uiso   1.00
H2941  H     0.68738   0.50000   0.94458   0.06333  Uiso   1.00
H2942  H     0.64681   0.50000   0.94536   0.06333  Uiso   1.00
C2943  C     0.50000   0.57205   0.75000   0.06333  Uiso   1.00
C2944  C     0.50000   0.59909   0.75000   0.06333  Uiso   1.00
C2945  C     0.50000   0.67795   0.75000   0.06333  Uiso   1.00
C2946  C     0.50000   0.65091   0.75000   0.06333  Uiso   1.00
C2947  C     0.67795   0.50000   0.87500   0.06333  Uiso   1.00
C2948  C     0.65091   0.50000   0.87500   0.06333  Uiso   1.00
C2949  C     0.57205   0.50000   0.87500   0.06333  Uiso   1.00
C2950  C     0.59909   0.50000   0.87500   0.06333  Uiso   1.00
Fe2951 Fe    0.75000   0.50000   0.81250   0.06333  Uiso   1.00
Fe2952 Fe    0.75000   0.50000   0.93750   0.06333  Uiso   1.00
C2953  C     0.75000   0.55715   0.96180   0.06333  Uiso   1.00
C2954  C     0.75000   0.61204   0.95820   0.06333  Uiso   1.00
N2955  N     0.75000   0.53304   0.97639   0.06333  Uiso   1.00
H2956  H     0.75000   0.56262   0.93042   0.06333  Uiso   1.00
H2957  H     0.75000   0.60319   0.92964   0.06333  Uiso   1.00
C2958  C     0.75000   0.69285   0.96180   0.06333  Uiso   1.00
C2959  C     0.75000   0.63796   0.95820   0.06333  Uiso   1.00
N2960  N     0.75000   0.71696   0.97639   0.06333  Uiso   1.00
H2961  H     0.75000   0.68738   0.93042   0.06333  Uiso   1.00
H2962  H     0.75000   0.64681   0.92964   0.06333  Uiso   1.00
C2963  C     0.94285   0.50000   0.83680   0.06333  Uiso   1.00
C2964  C     0.88796   0.50000   0.83320   0.06333  Uiso   1.00
N2965  N     0.96696   0.50000   0.85139   0.06333  Uiso   1.00
H2966  H     0.93738   0.50000   0.80542   0.06333  Uiso   1.00
H2967  H     0.89681   0.50000   0.80464   0.06333  Uiso   1.00
C2968  C     0.80715   0.50000   0.83680   0.06333  Uiso   1.00
C2969  C     0.86204   0.50000   0.83320   0.06333  Uiso   1.00
N2970  N     0.78304   0.50000   0.85139   0.06333  Uiso   1.00
H2971  H     0.81262   0.50000   0.80542   0.06333  Uiso   1.00
H2972  H     0.85319   0.50000   0.80464   0.06333  Uiso   1.00
C2973  C     0.75000   0.55715   0.78820   0.06333  Uiso   1.00
C2974  C     0.75000   0.61204   0.79180   0.06333  Uiso   1.00
N2975  N     0.75000   0.53304   0.77361   0.06333  Uiso   1.00
H2976  H     0.75000   0.56262   0.81958   0.06333  Uiso   1.00
H2977  H     0.75000   0.60319   0.82036   0.06333  Uiso   1.00
C2978  C     0.75000   0.69285   0.78820   0.06333  Uiso   1.00
C2979  C     0.75000   0.63796   0.79180   0.06333  Uiso   1.00
N2980  N     0.75000   0.71696   0.77361   0.06333  Uiso   1.00
H2981  H     0.75000   0.68738   0.81958   0.06333  Uiso   1.00
H2982  H     0.75000   0.64681   0.82036   0.06333  Uiso   1.00
C2983  C     0.80715   0.50000   0.91320   0.06333  Uiso   1.00
C2984  C     0.86204   0.50000   0.91680   0.06333  Uiso   1.00
N2985  N     0.78304   0.50000   0.89861   0.06333  Uiso   1.00
H2986  H     0.81262   0.50000   0.94458   0.06333  Uiso   1.00
H2987  H     0.85319   0.50000   0.94536   0.06333  Uiso   1.00
C2988  C     0.94285   0.50000   0.91320   0.06333  Uiso   1.00
C2989  C     0.88796   0.50000   0.91680   0.06333  Uiso   1.00
N2990  N     0.96696   0.50000   0.89861   0.06333  Uiso   1.00
H2991  H     0.93738   0.50000   0.94458   0.06333  Uiso   1.00
H2992  H     0.89681   0.50000   0.94536   0.06333  Uiso   1.00
C2993  C     0.75000   0.57205   0.75000   0.06333  Uiso   1.00
C2994  C     0.75000   0.59909   0.75000   0.06333  Uiso   1.00
C2995  C     0.75000   0.67795   0.75000   0.06333  Uiso   1.00
C2996  C     0.75000   0.65091   0.75000   0.06333  Uiso   1.00
C2997  C     0.92795   0.50000   0.87500   0.06333  Uiso   1.00
C2998  C     0.90091   0.50000   0.87500   0.06333  Uiso   1.00
C2999  C     0.82205   0.50000   0.87500   0.06333  Uiso   1.00
C3000  C     0.84909   0.50000   0.87500   0.06333  Uiso   1.00
Fe3001 Fe    0.00000   0.75000   0.81250   0.06333  Uiso   1.00
Fe3002 Fe    0.00000   0.75000   0.93750   0.06333  Uiso   1.00
C3003  C     0.00000   0.80715   0.96180   0.06333  Uiso   1.00
C3004  C     0.00000   0.86204   0.95820   0.06333  Uiso   1.00
N3005  N     0.00000   0.78304   0.97639   0.06333  Uiso   1.00
H3006  H     0.00000   0.81262   0.93042   0.06333  Uiso   1.00
H3007  H     0.00000   0.85319   0.92964   0.06333  Uiso   1.00
C3008  C     0.00000   0.94285   0.96180   0.06333  Uiso   1.00
C3009  C     0.00000   0.88796   0.95820   0.06333  Uiso   1.00
N3010  N     0.00000   0.96696   0.97639   0.06333  Uiso   1.00
H3011  H     0.00000   0.93738   0.93042   0.06333  Uiso   1.00
H3012  H     0.00000   0.89681   0.92964   0.06333  Uiso   1.00
C3013  C     0.19285   0.75000   0.83680   0.06333  Uiso   1.00
C3014  C     0.13796   0.75000   0.83320   0.06333  Uiso   1.00
N3015  N     0.21696   0.75000   0.85139   0.06333  Uiso   1.00
H3016  H     0.18738   0.75000   0.80542   0.06333  Uiso   1.00
H3017  H     0.14681   0.75000   0.80464   0.06333  Uiso   1.00
C3018  C     0.05715   0.75000   0.83680   0.06333  Uiso   1.00
C3019  C     0.11204   0.75000   0.83320   0.06333  Uiso   1.00
N3020  N     0.03304   0.75000   0.85139   0.06333  Uiso   1.00
H3021  H     0.06262   0.75000   0.80542   0.06333  Uiso   1.00
H3022  H     0.10319   0.75000   0.80464   0.06333  Uiso   1.00
C3023  C     0.00000   0.80715   0.78820   0.06333  Uiso   1.00
C3024  C     0.00000   0.86204   0.79180   0.06333  Uiso   1.00
N3025  N     0.00000   0.78304   0.77361   0.06333  Uiso   1.00
H3026  H     0.00000   0.81262   0.81958   0.06333  Uiso   1.00
H3027  H     0.00000   0.85319   0.82036   0.06333  Uiso   1.00
C3028  C     0.00000   0.94285   0.78820   0.06333  Uiso   1.00
C3029  C     0.00000   0.88796   0.79180   0.06333  Uiso   1.00
N3030  N     0.00000   0.96696   0.77361   0.06333  Uiso   1.00
H3031  H     0.00000   0.93738   0.81958   0.06333  Uiso   1.00
H3032  H     0.00000   0.89681   0.82036   0.06333  Uiso   1.00
C3033  C     0.05715   0.75000   0.91320   0.06333  Uiso   1.00
C3034  C     0.11204   0.75000   0.91680   0.06333  Uiso   1.00
N3035  N     0.03304   0.75000   0.89861   0.06333  Uiso   1.00
H3036  H     0.06262   0.75000   0.94458   0.06333  Uiso   1.00
H3037  H     0.10319   0.75000   0.94536   0.06333  Uiso   1.00
C3038  C     0.19285   0.75000   0.91320   0.06333  Uiso   1.00
C3039  C     0.13796   0.75000   0.91680   0.06333  Uiso   1.00
N3040  N     0.21696   0.75000   0.89861   0.06333  Uiso   1.00
H3041  H     0.18738   0.75000   0.94458   0.06333  Uiso   1.00
H3042  H     0.14681   0.75000   0.94536   0.06333  Uiso   1.00
C3043  C     0.00000   0.82205   0.75000   0.06333  Uiso   1.00
C3044  C     0.00000   0.84909   0.75000   0.06333  Uiso   1.00
C3045  C     0.00000   0.92795   0.75000   0.06333  Uiso   1.00
C3046  C     0.00000   0.90091   0.75000   0.06333  Uiso   1.00
C3047  C     0.17795   0.75000   0.87500   0.06333  Uiso   1.00
C3048  C     0.15091   0.75000   0.87500   0.06333  Uiso   1.00
C3049  C     0.07205   0.75000   0.87500   0.06333  Uiso   1.00
C3050  C     0.09909   0.75000   0.87500   0.06333  Uiso   1.00
Fe3051 Fe    0.25000   0.75000   0.81250   0.06333  Uiso   1.00
Fe3052 Fe    0.25000   0.75000   0.93750   0.06333  Uiso   1.00
C3053  C     0.25000   0.80715   0.96180   0.06333  Uiso   1.00
C3054  C     0.25000   0.86204   0.95820   0.06333  Uiso   1.00
N3055  N     0.25000   0.78304   0.97639   0.06333  Uiso   1.00
H3056  H     0.25000   0.81262   0.93042   0.06333  Uiso   1.00
H3057  H     0.25000   0.85319   0.92964   0.06333  Uiso   1.00
C3058  C     0.25000   0.94285   0.96180   0.06333  Uiso   1.00
C3059  C     0.25000   0.88796   0.95820   0.06333  Uiso   1.00
N3060  N     0.25000   0.96696   0.97639   0.06333  Uiso   1.00
H3061  H     0.25000   0.93738   0.93042   0.06333  Uiso   1.00
H3062  H     0.25000   0.89681   0.92964   0.06333  Uiso   1.00
C3063  C     0.44285   0.75000   0.83680   0.06333  Uiso   1.00
C3064  C     0.38796   0.75000   0.83320   0.06333  Uiso   1.00
N3065  N     0.46696   0.75000   0.85139   0.06333  Uiso   1.00
H3066  H     0.43738   0.75000   0.80542   0.06333  Uiso   1.00
H3067  H     0.39681   0.75000   0.80464   0.06333  Uiso   1.00
C3068  C     0.30715   0.75000   0.83680   0.06333  Uiso   1.00
C3069  C     0.36204   0.75000   0.83320   0.06333  Uiso   1.00
N3070  N     0.28304   0.75000   0.85139   0.06333  Uiso   1.00
H3071  H     0.31262   0.75000   0.80542   0.06333  Uiso   1.00
H3072  H     0.35319   0.75000   0.80464   0.06333  Uiso   1.00
C3073  C     0.25000   0.80715   0.78820   0.06333  Uiso   1.00
C3074  C     0.25000   0.86204   0.79180   0.06333  Uiso   1.00
N3075  N     0.25000   0.78304   0.77361   0.06333  Uiso   1.00
H3076  H     0.25000   0.81262   0.81958   0.06333  Uiso   1.00
H3077  H     0.25000   0.85319   0.82036   0.06333  Uiso   1.00
C3078  C     0.25000   0.94285   0.78820   0.06333  Uiso   1.00
C3079  C     0.25000   0.88796   0.79180   0.06333  Uiso   1.00
N3080  N     0.25000   0.96696   0.77361   0.06333  Uiso   1.00
H3081  H     0.25000   0.93738   0.81958   0.06333  Uiso   1.00
H3082  H     0.25000   0.89681   0.82036   0.06333  Uiso   1.00
C3083  C     0.30715   0.75000   0.91320   0.06333  Uiso   1.00
C3084  C     0.36204   0.75000   0.91680   0.06333  Uiso   1.00
N3085  N     0.28304   0.75000   0.89861   0.06333  Uiso   1.00
H3086  H     0.31262   0.75000   0.94458   0.06333  Uiso   1.00
H3087  H     0.35319   0.75000   0.94536   0.06333  Uiso   1.00
C3088  C     0.44285   0.75000   0.91320   0.06333  Uiso   1.00
C3089  C     0.38796   0.75000   0.91680   0.06333  Uiso   1.00
N3090  N     0.46696   0.75000   0.89861   0.06333  Uiso   1.00
H3091  H     0.43738   0.75000   0.94458   0.06333  Uiso   1.00
H3092  H     0.39681   0.75000   0.94536   0.06333  Uiso   1.00
C3093  C     0.25000   0.82205   0.75000   0.06333  Uiso   1.00
C3094  C     0.25000   0.84909   0.75000   0.06333  Uiso   1.00
C3095  C     0.25000   0.92795   0.75000   0.06333  Uiso   1.00
C3096  C     0.25000   0.90091   0.75000   0.06333  Uiso   1.00
C3097  C     0.42795   0.75000   0.87500   0.06333  Uiso   1.00
C3098  C     0.40091   0.75000   0.87500   0.06333  Uiso   1.00
C3099  C     0.32205   0.75000   0.87500   0.06333  Uiso   1.00
C3100  C     0.34909   0.75000   0.87500   0.06333  Uiso   1.00
Fe3101 Fe    0.50000   0.75000   0.81250   0.06333  Uiso   1.00
Fe3102 Fe    0.50000   0.75000   0.93750   0.06333  Uiso   1.00
C3103  C     0.50000   0.80715   0.96180   0.06333  Uiso   1.00
C3104  C     0.50000   0.86204   0.95820   0.06333  Uiso   1.00
N3105  N     0.50000   0.78304   0.97639   0.06333  Uiso   1.00
H3106  H     0.50000   0.81262   0.93042   0.06333  Uiso   1.00
H3107  H     0.50000   0.85319   0.92964   0.06333  Uiso   1.00
C3108  C     0.50000   0.94285   0.96180   0.06333  Uiso   1.00
C3109  C     0.50000   0.88796   0.95820   0.06333  Uiso   1.00
N3110  N     0.50000   0.96696   0.97639   0.06333  Uiso   1.00
H3111  H     0.50000   0.93738   0.93042   0.06333  Uiso   1.00
H3112  H     0.50000   0.89681   0.92964   0.06333  Uiso   1.00
C3113  C     0.69285   0.75000   0.83680   0.06333  Uiso   1.00
C3114  C     0.63796   0.75000   0.83320   0.06333  Uiso   1.00
N3115  N     0.71696   0.75000   0.85139   0.06333  Uiso   1.00
H3116  H     0.68738   0.75000   0.80542   0.06333  Uiso   1.00
H3117  H     0.64681   0.75000   0.80464   0.06333  Uiso   1.00
C3118  C     0.55715   0.75000   0.83680   0.06333  Uiso   1.00
C3119  C     0.61204   0.75000   0.83320   0.06333  Uiso   1.00
N3120  N     0.53304   0.75000   0.85139   0.06333  Uiso   1.00
H3121  H     0.56262   0.75000   0.80542   0.06333  Uiso   1.00
H3122  H     0.60319   0.75000   0.80464   0.06333  Uiso   1.00
C3123  C     0.50000   0.80715   0.78820   0.06333  Uiso   1.00
C3124  C     0.50000   0.86204   0.79180   0.06333  Uiso   1.00
N3125  N     0.50000   0.78304   0.77361   0.06333  Uiso   1.00
H3126  H     0.50000   0.81262   0.81958   0.06333  Uiso   1.00
H3127  H     0.50000   0.85319   0.82036   0.06333  Uiso   1.00
C3128  C     0.50000   0.94285   0.78820   0.06333  Uiso   1.00
C3129  C     0.50000   0.88796   0.79180   0.06333  Uiso   1.00
N3130  N     0.50000   0.96696   0.77361   0.06333  Uiso   1.00
H3131  H     0.50000   0.93738   0.81958   0.06333  Uiso   1.00
H3132  H     0.50000   0.89681   0.82036   0.06333  Uiso   1.00
C3133  C     0.55715   0.75000   0.91320   0.06333  Uiso   1.00
C3134  C     0.61204   0.75000   0.91680   0.06333  Uiso   1.00
N3135  N     0.53304   0.75000   0.89861   0.06333  Uiso   1.00
H3136  H     0.56262   0.75000   0.94458   0.06333  Uiso   1.00
H3137  H     0.60319   0.75000   0.94536   0.06333  Uiso   1.00
C3138  C     0.69285   0.75000   0.91320   0.06333  Uiso   1.00
C3139  C     0.63796   0.75000   0.91680   0.06333  Uiso   1.00
N3140  N     0.71696   0.75000   0.89861   0.06333  Uiso   1.00
H3141  H     0.68738   0.75000   0.94458   0.06333  Uiso   1.00
H3142  H     0.64681   0.75000   0.94536   0.06333  Uiso   1.00
C3143  C     0.50000   0.82205   0.75000   0.06333  Uiso   1.00
C3144  C     0.50000   0.84909   0.75000   0.06333  Uiso   1.00
C3145  C     0.50000   0.92795   0.75000   0.06333  Uiso   1.00
C3146  C     0.50000   0.90091   0.75000   0.06333  Uiso   1.00
C3147  C     0.67795   0.75000   0.87500   0.06333  Uiso   1.00
C3148  C     0.65091   0.75000   0.87500   0.06333  Uiso   1.00
C3149  C     0.57205   0.75000   0.87500   0.06333  Uiso   1.00
C3150  C     0.59909   0.75000   0.87500   0.06333  Uiso   1.00
Fe3151 Fe    0.75000   0.75000   0.81250   0.06333  Uiso   1.00
Fe3152 Fe    0.75000   0.75000   0.93750   0.06333  Uiso   1.00
C3153  C     0.75000   0.80715   0.96180   0.06333  Uiso   1.00
C3154  C     0.75000   0.86204   0.95820   0.06333  Uiso   1.00
N3155  N     0.75000   0.78304   0.97639   0.06333  Uiso   1.00
H3156  H     0.75000   0.81262   0.93042   0.06333  Uiso   1.00
H3157  H     0.75000   0.85319   0.92964   0.06333  Uiso   1.00
C3158  C     0.75000   0.94285   0.96180   0.06333  Uiso   1.00
C3159  C     0.75000   0.88796   0.95820   0.06333  Uiso   1.00
N3160  N     0.75000   0.96696   0.97639   0.06333  Uiso   1.00
H3161  H     0.75000   0.93738   0.93042   0.06333  Uiso   1.00
H3162  H     0.75000   0.89681   0.92964   0.06333  Uiso   1.00
C3163  C     0.94285   0.75000   0.83680   0.06333  Uiso   1.00
C3164  C     0.88796   0.75000   0.83320   0.06333  Uiso   1.00
N3165  N     0.96696   0.75000   0.85139   0.06333  Uiso   1.00
H3166  H     0.93738   0.75000   0.80542   0.06333  Uiso   1.00
H3167  H     0.89681   0.75000   0.80464   0.06333  Uiso   1.00
C3168  C     0.80715   0.75000   0.83680   0.06333  Uiso   1.00
C3169  C     0.86204   0.75000   0.83320   0.06333  Uiso   1.00
N3170  N     0.78304   0.75000   0.85139   0.06333  Uiso   1.00
H3171  H     0.81262   0.75000   0.80542   0.06333  Uiso   1.00
H3172  H     0.85319   0.75000   0.80464   0.06333  Uiso   1.00
C3173  C     0.75000   0.80715   0.78820   0.06333  Uiso   1.00
C3174  C     0.75000   0.86204   0.79180   0.06333  Uiso   1.00
N3175  N     0.75000   0.78304   0.77361   0.06333  Uiso   1.00
H3176  H     0.75000   0.81262   0.81958   0.06333  Uiso   1.00
H3177  H     0.75000   0.85319   0.82036   0.06333  Uiso   1.00
C3178  C     0.75000   0.94285   0.78820   0.06333  Uiso   1.00
C3179  C     0.75000   0.88796   0.79180   0.06333  Uiso   1.00
N3180  N     0.75000   0.96696   0.77361   0.06333  Uiso   1.00
H3181  H     0.75000   0.93738   0.81958   0.06333  Uiso   1.00
H3182  H     0.75000   0.89681   0.82036   0.06333  Uiso   1.00
C3183  C     0.80715   0.75000   0.91320   0.06333  Uiso   1.00
C3184  C     0.86204   0.75000   0.91680   0.06333  Uiso   1.00
N3185  N     0.78304   0.75000   0.89861   0.06333  Uiso   1.00
H3186  H     0.81262   0.75000   0.94458   0.06333  Uiso   1.00
H3187  H     0.85319   0.75000   0.94536   0.06333  Uiso   1.00
C3188  C     0.94285   0.75000   0.91320   0.06333  Uiso   1.00
C3189  C     0.88796   0.75000   0.91680   0.06333  Uiso   1.00
N3190  N     0.96696   0.75000   0.89861   0.06333  Uiso   1.00
H3191  H     0.93738   0.75000   0.94458   0.06333  Uiso   1.00
H3192  H     0.89681   0.75000   0.94536   0.06333  Uiso   1.00
C3193  C     0.75000   0.82205   0.75000   0.06333  Uiso   1.00
C3194  C     0.75000   0.84909   0.75000   0.06333  Uiso   1.00
C3195  C     0.75000   0.92795   0.75000   0.06333  Uiso   1.00
C3196  C     0.75000   0.90091   0.75000   0.06333  Uiso   1.00
C3197  C     0.92795   0.75000   0.87500   0.06333  Uiso   1.00
C3198  C     0.90091   0.75000   0.87500   0.06333  Uiso   1.00
C3199  C     0.82205   0.75000   0.87500   0.06333  Uiso   1.00
C3200  C     0.84909   0.75000   0.87500   0.06333  Uiso   1.00
loop_
_geom_bond_atom_site_label_1
_geom_bond_atom_site_label_2
_geom_bond_distance
_geom_bond_site_symmetry_2
_ccdc_geom_bond_type
Fe1    N25     2.096   .     S
Fe1    N630    2.096   1_545 S
Fe1    N20     2.096   .     S
Fe1    N165    2.096   1_455 S
Fe2    N190    2.096   1_455 S
Fe2    N35     2.096   .     S
Fe2    N5      2.096   .     S
Fe2    N610    2.096   1_545 S
C3     N5      1.360   .     D
C3     H6      0.950   .     S
C3     C843    1.360   .     S
C4     H7      0.950   .     S
C4     C844    1.390   .     S
C4     C9      1.390   .     D
N5     N825    1.360   .     S
C8     N10     1.360   .     D
C8     H11     0.950   .     S
C8     C845    1.360   .     S
C9     H12     0.950   .     S
C9     C846    1.390   .     S
N10    Fe202   2.096   .     S
N10    N830    1.360   .     S
C13    N15     1.360   .     D
C13    H16     0.950   .     S
C13    C47     1.360   .     S
C14    H17     0.950   .     S
C14    C48     1.390   .     S
C14    C19     1.390   .     D
N15    Fe51    2.096   .     S
N15    N40     1.360   .     S
C18    N20     1.360   .     D
C18    H21     0.950   .     S
C18    C49     1.360   .     S
C19    H22     0.950   .     S
C19    C50     1.390   .     S
N20    N35     1.360   .     S
C23    N25     1.360   .     D
C23    H26     0.950   .     S
C23    C43     1.360   .     S
C24    H27     0.950   .     S
C24    C44     1.390   .     S
C24    C29     1.390   .     D
N25    N2405   1.360   1_554 S
C28    N30     1.360   .     D
C28    H31     0.950   .     S
C28    C45     1.360   .     S
C29    H32     0.950   .     S
C29    C46     1.390   .     S
N30    Fe201   2.096   .     S
N30    N2410   1.360   1_554 S
C33    N35     1.360   .     D
C33    H36     0.950   .     S
C33    C49     1.360   .     S
C34    H37     0.950   .     S
C34    C50     1.390   .     S
C34    C39     1.390   .     D
C38    N40     1.360   .     D
C38    H41     0.950   .     S
C38    C47     1.360   .     S
C39    H42     0.950   .     S
C39    C48     1.390   .     S
N40    Fe52    2.096   .     S
C43    C2403   1.360   1_554 S
C43    C44     1.450   .     D
C44    C2404   1.390   1_554 S
C45    C2408   1.360   1_554 S
C45    C46     1.450   .     D
C46    C2409   1.390   1_554 S
C47    C48     1.450   .     D
C49    C50     1.450   .     D
Fe51   N75     2.096   .     S
Fe51   N680    2.096   1_545 S
Fe51   N70     2.096   .     S
Fe52   N85     2.096   .     S
Fe52   N55     2.096   .     S
Fe52   N660    2.096   1_545 S
C53    N55     1.360   .     D
C53    H56     0.950   .     S
C53    C893    1.360   .     S
C54    H57     0.950   .     S
C54    C894    1.390   .     S
C54    C59     1.390   .     D
N55    N875    1.360   .     S
C58    N60     1.360   .     D
C58    H61     0.950   .     S
C58    C895    1.360   .     S
C59    H62     0.950   .     S
C59    C896    1.390   .     S
N60    Fe252   2.096   .     S
N60    N880    1.360   .     S
C63    N65     1.360   .     D
C63    H66     0.950   .     S
C63    C97     1.360   .     S
C64    H67     0.950   .     S
C64    C98     1.390   .     S
C64    C69     1.390   .     D
N65    Fe101   2.096   .     S
N65    N90     1.360   .     S
C68    N70     1.360   .     D
C68    H71     0.950   .     S
C68    C99     1.360   .     S
C69    H72     0.950   .     S
C69    C100    1.390   .     S
N70    N85     1.360   .     S
C73    N75     1.360   .     D
C73    H76     0.950   .     S
C73    C93     1.360   .     S
C74    H77     0.950   .     S
C74    C94     1.390   .     S
C74    C79     1.390   .     D
N75    N2455   1.360   1_554 S
C78    N80     1.360   .     D
C78    H81     0.950   .     S
C78    C95     1.360   .     S
C79    H82     0.950   .     S
C79    C96     1.390   .     S
N80    Fe251   2.096   .     S
N80    N2460   1.360   1_554 S
C83    N85     1.360   .     D
C83    H86     0.950   .     S
C83    C99     1.360   .     S
C84    H87     0.950   .     S
C84    C100    1.390   .     S
C84    C89     1.390   .     D
C88    N90     1.360   .     D
C88    H91     0.950   .     S
C88    C97     1.360   .     S
C89    H92     0.950   .     S
C89    C98     1.390   .     S
N90    Fe102   2.096   .     S
C93    C2453   1.360   1_554 S
C93    C94     1.450   .     D
C94    C2454   1.390   1_554 S
C95    C2458   1.360   1_554 S
C95    C96     1.450   .     D
C96    C2459   1.390   1_554 S
C97    C98     1.450   .     D
C99    C100    1.450   .     D
Fe101  N125    2.096   .     S
Fe101  N730    2.096   1_545 S
Fe101  N120    2.096   .     S
Fe102  N135    2.096   .     S
Fe102  N105    2.096   .     S
Fe102  N710    2.096   1_545 S
C103   N105    1.360   .     D
C103   H106    0.950   .     S
C103   C943    1.360   .     S
C104   H107    0.950   .     S
C104   C944    1.390   .     S
C104   C109    1.390   .     D
N105   N925    1.360   .     S
C108   N110    1.360   .     D
C108   H111    0.950   .     S
C108   C945    1.360   .     S
C109   H112    0.950   .     S
C109   C946    1.390   .     S
N110   Fe302   2.096   .     S
N110   N930    1.360   .     S
C113   N115    1.360   .     D
C113   H116    0.950   .     S
C113   C147    1.360   .     S
C114   H117    0.950   .     S
C114   C148    1.390   .     S
C114   C119    1.390   .     D
N115   Fe151   2.096   .     S
N115   N140    1.360   .     S
C118   N120    1.360   .     D
C118   H121    0.950   .     S
C118   C149    1.360   .     S
C119   H122    0.950   .     S
C119   C150    1.390   .     S
N120   N135    1.360   .     S
C123   N125    1.360   .     D
C123   H126    0.950   .     S
C123   C143    1.360   .     S
C124   H127    0.950   .     S
C124   C144    1.390   .     S
C124   C129    1.390   .     D
N125   N2505   1.360   1_554 S
C128   N130    1.360   .     D
C128   H131    0.950   .     S
C128   C145    1.360   .     S
C129   H132    0.950   .     S
C129   C146    1.390   .     S
N130   Fe301   2.096   .     S
N130   N2510   1.360   1_554 S
C133   N135    1.360   .     D
C133   H136    0.950   .     S
C133   C149    1.360   .     S
C134   H137    0.950   .     S
C134   C150    1.390   .     S
C134   C139    1.390   .     D
C138   N140    1.360   .     D
C138   H141    0.950   .     S
C138   C147    1.360   .     S
C139   H142    0.950   .     S
C139   C148    1.390   .     S
N140   Fe152   2.096   .     S
C143   C2503   1.360   1_554 S
C143   C144    1.450   .     D
C144   C2504   1.390   1_554 S
C145   C2508   1.360   1_554 S
C145   C146    1.450   .     D
C146   C2509   1.390   1_554 S
C147   C148    1.450   .     D
C149   C150    1.450   .     D
Fe151  N175    2.096   .     S
Fe151  N780    2.096   1_545 S
Fe151  N170    2.096   .     S
Fe152  N185    2.096   .     S
Fe152  N155    2.096   .     S
Fe152  N760    2.096   1_545 S
C153   N155    1.360   .     D
C153   H156    0.950   .     S
C153   C993    1.360   .     S
C154   H157    0.950   .     S
C154   C994    1.390   .     S
C154   C159    1.390   .     D
N155   N975    1.360   .     S
C158   N160    1.360   .     D
C158   H161    0.950   .     S
C158   C995    1.360   .     S
C159   H162    0.950   .     S
C159   C996    1.390   .     S
N160   Fe352   2.096   .     S
N160   N980    1.360   .     S
C163   N165    1.360   .     D
C163   H166    0.950   .     S
C163   C197    1.360   .     S
C164   H167    0.950   .     S
C164   C198    1.390   .     S
C164   C169    1.390   .     D
N165   Fe1     2.096   1_655 S
N165   N190    1.360   .     S
C168   N170    1.360   .     D
C168   H171    0.950   .     S
C168   C199    1.360   .     S
C169   H172    0.950   .     S
C169   C200    1.390   .     S
N170   N185    1.360   .     S
C173   N175    1.360   .     D
C173   H176    0.950   .     S
C173   C193    1.360   .     S
C174   H177    0.950   .     S
C174   C194    1.390   .     S
C174   C179    1.390   .     D
N175   N2555   1.360   1_554 S
C178   N180    1.360   .     D
C178   H181    0.950   .     S
C178   C195    1.360   .     S
C179   H182    0.950   .     S
C179   C196    1.390   .     S
N180   Fe351   2.096   .     S
N180   N2560   1.360   1_554 S
C183   N185    1.360   .     D
C183   H186    0.950   .     S
C183   C199    1.360   .     S
C184   H187    0.950   .     S
C184   C200    1.390   .     S
C184   C189    1.390   .     D
C188   N190    1.360   .     D
C188   H191    0.950   .     S
C188   C197    1.360   .     S
C189   H192    0.950   .     S
C189   C198    1.390   .     S
N190   Fe2     2.096   1_655 S
C193   C2553   1.360   1_554 S
C193   C194    1.450   .     D
C194   C2554   1.390   1_554 S
C195   C2558   1.360   1_554 S
C195   C196    1.450   .     D
C196   C2559   1.390   1_554 S
C197   C198    1.450   .     D
C199   C200    1.450   .     D
Fe201  N225    2.096   .     S
Fe201  N220    2.096   .     S
Fe201  N365    2.096   1_455 S
Fe202  N390    2.096   1_455 S
Fe202  N235    2.096   .     S
Fe202  N205    2.096   .     S
C203   N205    1.360   .     D
C203   H206    0.950   .     S
C203   C1043   1.360   .     S
C204   H207    0.950   .     S
C204   C1044   1.390   .     S
C204   C209    1.390   .     D
N205   N1025   1.360   .     S
C208   N210    1.360   .     D
C208   H211    0.950   .     S
C208   C1045   1.360   .     S
C209   H212    0.950   .     S
C209   C1046   1.390   .     S
N210   Fe402   2.096   .     S
N210   N1030   1.360   .     S
C213   N215    1.360   .     D
C213   H216    0.950   .     S
C213   C247    1.360   .     S
C214   H217    0.950   .     S
C214   C248    1.390   .     S
C214   C219    1.390   .     D
N215   Fe251   2.096   .     S
N215   N240    1.360   .     S
C218   N220    1.360   .     D
C218   H221    0.950   .     S
C218   C249    1.360   .     S
C219   H222    0.950   .     S
C219   C250    1.390   .     S
N220   N235    1.360   .     S
C223   N225    1.360   .     D
C223   H226    0.950   .     S
C223   C243    1.360   .     S
C224   H227    0.950   .     S
C224   C244    1.390   .     S
C224   C229    1.390   .     D
N225   N2605   1.360   1_554 S
C228   N230    1.360   .     D
C228   H231    0.950   .     S
C228   C245    1.360   .     S
C229   H232    0.950   .     S
C229   C246    1.390   .     S
N230   Fe401   2.096   .     S
N230   N2610   1.360   1_554 S
C233   N235    1.360   .     D
C233   H236    0.950   .     S
C233   C249    1.360   .     S
C234   H237    0.950   .     S
C234   C250    1.390   .     S
C234   C239    1.390   .     D
C238   N240    1.360   .     D
C238   H241    0.950   .     S
C238   C247    1.360   .     S
C239   H242    0.950   .     S
C239   C248    1.390   .     S
N240   Fe252   2.096   .     S
C243   C2603   1.360   1_554 S
C243   C244    1.450   .     D
C244   C2604   1.390   1_554 S
C245   C2608   1.360   1_554 S
C245   C246    1.450   .     D
C246   C2609   1.390   1_554 S
C247   C248    1.450   .     D
C249   C250    1.450   .     D
Fe251  N275    2.096   .     S
Fe251  N270    2.096   .     S
Fe252  N285    2.096   .     S
Fe252  N255    2.096   .     S
C253   N255    1.360   .     D
C253   H256    0.950   .     S
C253   C1093   1.360   .     S
C254   H257    0.950   .     S
C254   C1094   1.390   .     S
C254   C259    1.390   .     D
N255   N1075   1.360   .     S
C258   N260    1.360   .     D
C258   H261    0.950   .     S
C258   C1095   1.360   .     S
C259   H262    0.950   .     S
C259   C1096   1.390   .     S
N260   Fe452   2.096   .     S
N260   N1080   1.360   .     S
C263   N265    1.360   .     D
C263   H266    0.950   .     S
C263   C297    1.360   .     S
C264   H267    0.950   .     S
C264   C298    1.390   .     S
C264   C269    1.390   .     D
N265   Fe301   2.096   .     S
N265   N290    1.360   .     S
C268   N270    1.360   .     D
C268   H271    0.950   .     S
C268   C299    1.360   .     S
C269   H272    0.950   .     S
C269   C300    1.390   .     S
N270   N285    1.360   .     S
C273   N275    1.360   .     D
C273   H276    0.950   .     S
C273   C293    1.360   .     S
C274   H277    0.950   .     S
C274   C294    1.390   .     S
C274   C279    1.390   .     D
N275   N2655   1.360   1_554 S
C278   N280    1.360   .     D
C278   H281    0.950   .     S
C278   C295    1.360   .     S
C279   H282    0.950   .     S
C279   C296    1.390   .     S
N280   Fe451   2.096   .     S
N280   N2660   1.360   1_554 S
C283   N285    1.360   .     D
C283   H286    0.950   .     S
C283   C299    1.360   .     S
C284   H287    0.950   .     S
C284   C300    1.390   .     S
C284   C289    1.390   .     D
C288   N290    1.360   .     D
C288   H291    0.950   .     S
C288   C297    1.360   .     S
C289   H292    0.950   .     S
C289   C298    1.390   .     S
N290   Fe302   2.096   .     S
C293   C2653   1.360   1_554 S
C293   C294    1.450   .     D
C294   C2654   1.390   1_554 S
C295   C2658   1.360   1_554 S
C295   C296    1.450   .     D
C296   C2659   1.390   1_554 S
C297   C298    1.450   .     D
C299   C300    1.450   .     D
Fe301  N325    2.096   .     S
Fe301  N320    2.096   .     S
Fe302  N335    2.096   .     S
Fe302  N305    2.096   .     S
C303   N305    1.360   .     D
C303   H306    0.950   .     S
C303   C1143   1.360   .     S
C304   H307    0.950   .     S
C304   C1144   1.390   .     S
C304   C309    1.390   .     D
N305   N1125   1.360   .     S
C308   N310    1.360   .     D
C308   H311    0.950   .     S
C308   C1145   1.360   .     S
C309   H312    0.950   .     S
C309   C1146   1.390   .     S
N310   Fe502   2.096   .     S
N310   N1130   1.360   .     S
C313   N315    1.360   .     D
C313   H316    0.950   .     S
C313   C347    1.360   .     S
C314   H317    0.950   .     S
C314   C348    1.390   .     S
C314   C319    1.390   .     D
N315   Fe351   2.096   .     S
N315   N340    1.360   .     S
C318   N320    1.360   .     D
C318   H321    0.950   .     S
C318   C349    1.360   .     S
C319   H322    0.950   .     S
C319   C350    1.390   .     S
N320   N335    1.360   .     S
C323   N325    1.360   .     D
C323   H326    0.950   .     S
C323   C343    1.360   .     S
C324   H327    0.950   .     S
C324   C344    1.390   .     S
C324   C329    1.390   .     D
N325   N2705   1.360   1_554 S
C328   N330    1.360   .     D
C328   H331    0.950   .     S
C328   C345    1.360   .     S
C329   H332    0.950   .     S
C329   C346    1.390   .     S
N330   Fe501   2.096   .     S
N330   N2710   1.360   1_554 S
C333   N335    1.360   .     D
C333   H336    0.950   .     S
C333   C349    1.360   .     S
C334   H337    0.950   .     S
C334   C350    1.390   .     S
C334   C339    1.390   .     D
C338   N340    1.360   .     D
C338   H341    0.950   .     S
C338   C347    1.360   .     S
C339   H342    0.950   .     S
C339   C348    1.390   .     S
N340   Fe352   2.096   .     S
C343   C2703   1.360   1_554 S
C343   C344    1.450   .     D
C344   C2704   1.390   1_554 S
C345   C2708   1.360   1_554 S
C345   C346    1.450   .     D
C346   C2709   1.390   1_554 S
C347   C348    1.450   .     D
C349   C350    1.450   .     D
Fe351  N375    2.096   .     S
Fe351  N370    2.096   .     S
Fe352  N385    2.096   .     S
Fe352  N355    2.096   .     S
C353   N355    1.360   .     D
C353   H356    0.950   .     S
C353   C1193   1.360   .     S
C354   H357    0.950   .     S
C354   C1194   1.390   .     S
C354   C359    1.390   .     D
N355   N1175   1.360   .     S
C358   N360    1.360   .     D
C358   H361    0.950   .     S
C358   C1195   1.360   .     S
C359   H362    0.950   .     S
C359   C1196   1.390   .     S
N360   Fe552   2.096   .     S
N360   N1180   1.360   .     S
C363   N365    1.360   .     D
C363   H366    0.950   .     S
C363   C397    1.360   .     S
C364   H367    0.950   .     S
C364   C398    1.390   .     S
C364   C369    1.390   .     D
N365   Fe201   2.096   1_655 S
N365   N390    1.360   .     S
C368   N370    1.360   .     D
C368   H371    0.950   .     S
C368   C399    1.360   .     S
C369   H372    0.950   .     S
C369   C400    1.390   .     S
N370   N385    1.360   .     S
C373   N375    1.360   .     D
C373   H376    0.950   .     S
C373   C393    1.360   .     S
C374   H377    0.950   .     S
C374   C394    1.390   .     S
C374   C379    1.390   .     D
N375   N2755   1.360   1_554 S
C378   N380    1.360   .     D
C378   H381    0.950   .     S
C378   C395    1.360   .     S
C379   H382    0.950   .     S
C379   C396    1.390   .     S
N380   Fe551   2.096   .     S
N380   N2760   1.360   1_554 S
C383   N385    1.360   .     D
C383   H386    0.950   .     S
C383   C399    1.360   .     S
C384   H387    0.950   .     S
C384   C400    1.390   .     S
C384   C389    1.390   .     D
C388   N390    1.360   .     D
C388   H391    0.950   .     S
C388   C397    1.360   .     S
C389   H392    0.950   .     S
C389   C398    1.390   .     S
N390   Fe202   2.096   1_655 S
C393   C2753   1.360   1_554 S
C393   C394    1.450   .     D
C394   C2754   1.390   1_554 S
C395   C2758   1.360   1_554 S
C395   C396    1.450   .     D
C396   C2759   1.390   1_554 S
C397   C398    1.450   .     D
C399   C400    1.450   .     D
Fe401  N425    2.096   .     S
Fe401  N420    2.096   .     S
Fe401  N565    2.096   1_455 S
Fe402  N590    2.096   1_455 S
Fe402  N435    2.096   .     S
Fe402  N405    2.096   .     S
C403   N405    1.360   .     D
C403   H406    0.950   .     S
C403   C1243   1.360   .     S
C404   H407    0.950   .     S
C404   C1244   1.390   .     S
C404   C409    1.390   .     D
N405   N1225   1.360   .     S
C408   N410    1.360   .     D
C408   H411    0.950   .     S
C408   C1245   1.360   .     S
C409   H412    0.950   .     S
C409   C1246   1.390   .     S
N410   Fe602   2.096   .     S
N410   N1230   1.360   .     S
C413   N415    1.360   .     D
C413   H416    0.950   .     S
C413   C447    1.360   .     S
C414   H417    0.950   .     S
C414   C448    1.390   .     S
C414   C419    1.390   .     D
N415   Fe451   2.096   .     S
N415   N440    1.360   .     S
C418   N420    1.360   .     D
C418   H421    0.950   .     S
C418   C449    1.360   .     S
C419   H422    0.950   .     S
C419   C450    1.390   .     S
N420   N435    1.360   .     S
C423   N425    1.360   .     D
C423   H426    0.950   .     S
C423   C443    1.360   .     S
C424   H427    0.950   .     S
C424   C444    1.390   .     S
C424   C429    1.390   .     D
N425   N2805   1.360   1_554 S
C428   N430    1.360   .     D
C428   H431    0.950   .     S
C428   C445    1.360   .     S
C429   H432    0.950   .     S
C429   C446    1.390   .     S
N430   Fe601   2.096   .     S
N430   N2810   1.360   1_554 S
C433   N435    1.360   .     D
C433   H436    0.950   .     S
C433   C449    1.360   .     S
C434   H437    0.950   .     S
C434   C450    1.390   .     S
C434   C439    1.390   .     D
C438   N440    1.360   .     D
C438   H441    0.950   .     S
C438   C447    1.360   .     S
C439   H442    0.950   .     S
C439   C448    1.390   .     S
N440   Fe452   2.096   .     S
C443   C2803   1.360   1_554 S
C443   C444    1.450   .     D
C444   C2804   1.390   1_554 S
C445   C2808   1.360   1_554 S
C445   C446    1.450   .     D
C446   C2809   1.390   1_554 S
C447   C448    1.450   .     D
C449   C450    1.450   .     D
Fe451  N475    2.096   .     S
Fe451  N470    2.096   .     S
Fe452  N485    2.096   .     S
Fe452  N455    2.096   .     S
C453   N455    1.360   .     D
C453   H456    0.950   .     S
C453   C1293   1.360   .     S
C454   H457    0.950   .     S
C454   C1294   1.390   .     S
C454   C459    1.390   .     D
N455   N1275   1.360   .     S
C458   N460    1.360   .     D
C458   H461    0.950   .     S
C458   C1295   1.360   .     S
C459   H462    0.950   .     S
C459   C1296   1.390   .     S
N460   Fe652   2.096   .     S
N460   N1280   1.360   .     S
C463   N465    1.360   .     D
C463   H466    0.950   .     S
C463   C497    1.360   .     S
C464   H467    0.950   .     S
C464   C498    1.390   .     S
C464   C469    1.390   .     D
N465   Fe501   2.096   .     S
N465   N490    1.360   .     S
C468   N470    1.360   .     D
C468   H471    0.950   .     S
C468   C499    1.360   .     S
C469   H472    0.950   .     S
C469   C500    1.390   .     S
N470   N485    1.360   .     S
C473   N475    1.360   .     D
C473   H476    0.950   .     S
C473   C493    1.360   .     S
C474   H477    0.950   .     S
C474   C494    1.390   .     S
C474   C479    1.390   .     D
N475   N2855   1.360   1_554 S
C478   N480    1.360   .     D
C478   H481    0.950   .     S
C478   C495    1.360   .     S
C479   H482    0.950   .     S
C479   C496    1.390   .     S
N480   Fe651   2.096   .     S
N480   N2860   1.360   1_554 S
C483   N485    1.360   .     D
C483   H486    0.950   .     S
C483   C499    1.360   .     S
C484   H487    0.950   .     S
C484   C500    1.390   .     S
C484   C489    1.390   .     D
C488   N490    1.360   .     D
C488   H491    0.950   .     S
C488   C497    1.360   .     S
C489   H492    0.950   .     S
C489   C498    1.390   .     S
N490   Fe502   2.096   .     S
C493   C2853   1.360   1_554 S
C493   C494    1.450   .     D
C494   C2854   1.390   1_554 S
C495   C2858   1.360   1_554 S
C495   C496    1.450   .     D
C496   C2859   1.390   1_554 S
C497   C498    1.450   .     D
C499   C500    1.450   .     D
Fe501  N525    2.096   .     S
Fe501  N520    2.096   .     S
Fe502  N535    2.096   .     S
Fe502  N505    2.096   .     S
C503   N505    1.360   .     D
C503   H506    0.950   .     S
C503   C1343   1.360   .     S
C504   H507    0.950   .     S
C504   C1344   1.390   .     S
C504   C509    1.390   .     D
N505   N1325   1.360   .     S
C508   N510    1.360   .     D
C508   H511    0.950   .     S
C508   C1345   1.360   .     S
C509   H512    0.950   .     S
C509   C1346   1.390   .     S
N510   Fe702   2.096   .     S
N510   N1330   1.360   .     S
C513   N515    1.360   .     D
C513   H516    0.950   .     S
C513   C547    1.360   .     S
C514   H517    0.950   .     S
C514   C548    1.390   .     S
C514   C519    1.390   .     D
N515   Fe551   2.096   .     S
N515   N540    1.360   .     S
C518   N520    1.360   .     D
C518   H521    0.950   .     S
C518   C549    1.360   .     S
C519   H522    0.950   .     S
C519   C550    1.390   .     S
N520   N535    1.360   .     S
C523   N525    1.360   .     D
C523   H526    0.950   .     S
C523   C543    1.360   .     S
C524   H527    0.950   .     S
C524   C544    1.390   .     S
C524   C529    1.390   .     D
N525   N2905   1.360   1_554 S
C528   N530    1.360   .     D
C528   H531    0.950   .     S
C528   C545    1.360   .     S
C529   H532    0.950   .     S
C529   C546    1.390   .     S
N530   Fe701   2.096   .     S
N530   N2910   1.360   1_554 S
C533   N535    1.360   .     D
C533   H536    0.950   .     S
C533   C549    1.360   .     S
C534   H537    0.950   .     S
C534   C550    1.390   .     S
C534   C539    1.390   .     D
C538   N540    1.360   .     D
C538   H541    0.950   .     S
C538   C547    1.360   .     S
C539   H542    0.950   .     S
C539   C548    1.390   .     S
N540   Fe552   2.096   .     S
C543   C2903   1.360   1_554 S
C543   C544    1.450   .     D
C544   C2904   1.390   1_554 S
C545   C2908   1.360   1_554 S
C545   C546    1.450   .     D
C546   C2909   1.390   1_554 S
C547   C548    1.450   .     D
C549   C550    1.450   .     D
Fe551  N575    2.096   .     S
Fe551  N570    2.096   .     S
Fe552  N585    2.096   .     S
Fe552  N555    2.096   .     S
C553   N555    1.360   .     D
C553   H556    0.950   .     S
C553   C1393   1.360   .     S
C554   H557    0.950   .     S
C554   C1394   1.390   .     S
C554   C559    1.390   .     D
N555   N1375   1.360   .     S
C558   N560    1.360   .     D
C558   H561    0.950   .     S
C558   C1395   1.360   .     S
C559   H562    0.950   .     S
C559   C1396   1.390   .     S
N560   Fe752   2.096   .     S
N560   N1380   1.360   .     S
C563   N565    1.360   .     D
C563   H566    0.950   .     S
C563   C597    1.360   .     S
C564   H567    0.950   .     S
C564   C598    1.390   .     S
C564   C569    1.390   .     D
N565   Fe401   2.096   1_655 S
N565   N590    1.360   .     S
C568   N570    1.360   .     D
C568   H571    0.950   .     S
C568   C599    1.360   .     S
C569   H572    0.950   .     S
C569   C600    1.390   .     S
N570   N585    1.360   .     S
C573   N575    1.360   .     D
C573   H576    0.950   .     S
C573   C593    1.360   .     S
C574   H577    0.950   .     S
C574   C594    1.390   .     S
C574   C579    1.390   .     D
N575   N2955   1.360   1_554 S
C578   N580    1.360   .     D
C578   H581    0.950   .     S
C578   C595    1.360   .     S
C579   H582    0.950   .     S
C579   C596    1.390   .     S
N580   Fe751   2.096   .     S
N580   N2960   1.360   1_554 S
C583   N585    1.360   .     D
C583   H586    0.950   .     S
C583   C599    1.360   .     S
C584   H587    0.950   .     S
C584   C600    1.390   .     S
C584   C589    1.390   .     D
C588   N590    1.360   .     D
C588   H591    0.950   .     S
C588   C597    1.360   .     S
C589   H592    0.950   .     S
C589   C598    1.390   .     S
N590   Fe402   2.096   1_655 S
C593   C2953   1.360   1_554 S
C593   C594    1.450   .     D
C594   C2954   1.390   1_554 S
C595   C2958   1.360   1_554 S
C595   C596    1.450   .     D
C596   C2959   1.390   1_554 S
C597   C598    1.450   .     D
C599   C600    1.450   .     D
Fe601  N625    2.096   .     S
Fe601  N620    2.096   .     S
Fe601  N765    2.096   1_455 S
Fe602  N790    2.096   1_455 S
Fe602  N635    2.096   .     S
Fe602  N605    2.096   .     S
C603   N605    1.360   .     D
C603   H606    0.950   .     S
C603   C1443   1.360   .     S
C604   H607    0.950   .     S
C604   C1444   1.390   .     S
C604   C609    1.390   .     D
N605   N1425   1.360   .     S
C608   N610    1.360   .     D
C608   H611    0.950   .     S
C608   C1445   1.360   .     S
C609   H612    0.950   .     S
C609   C1446   1.390   .     S
N610   Fe2     2.096   1_565 S
N610   N1430   1.360   .     S
C613   N615    1.360   .     D
C613   H616    0.950   .     S
C613   C647    1.360   .     S
C614   H617    0.950   .     S
C614   C648    1.390   .     S
C614   C619    1.390   .     D
N615   Fe651   2.096   .     S
N615   N640    1.360   .     S
C618   N620    1.360   .     D
C618   H621    0.950   .     S
C618   C649    1.360   .     S
C619   H622    0.950   .     S
C619   C650    1.390   .     S
N620   N635    1.360   .     S
C623   N625    1.360   .     D
C623   H626    0.950   .     S
C623   C643    1.360   .     S
C624   H627    0.950   .     S
C624   C644    1.390   .     S
C624   C629    1.390   .     D
N625   N3005   1.360   1_554 S
C628   N630    1.360   .     D
C628   H631    0.950   .     S
C628   C645    1.360   .     S
C629   H632    0.950   .     S
C629   C646    1.390   .     S
N630   Fe1     2.096   1_565 S
N630   N3010   1.360   1_554 S
C633   N635    1.360   .     D
C633   H636    0.950   .     S
C633   C649    1.360   .     S
C634   H637    0.950   .     S
C634   C650    1.390   .     S
C634   C639    1.390   .     D
C638   N640    1.360   .     D
C638   H641    0.950   .     S
C638   C647    1.360   .     S
C639   H642    0.950   .     S
C639   C648    1.390   .     S
N640   Fe652   2.096   .     S
C643   C3003   1.360   1_554 S
C643   C644    1.450   .     D
C644   C3004   1.390   1_554 S
C645   C3008   1.360   1_554 S
C645   C646    1.450   .     D
C646   C3009   1.390   1_554 S
C647   C648    1.450   .     D
C649   C650    1.450   .     D
Fe651  N675    2.096   .     S
Fe651  N670    2.096   .     S
Fe652  N685    2.096   .     S
Fe652  N655    2.096   .     S
C653   N655    1.360   .     D
C653   H656    0.950   .     S
C653   C1493   1.360   .     S
C654   H657    0.950   .     S
C654   C1494   1.390   .     S
C654   C659    1.390   .     D
N655   N1475   1.360   .     S
C658   N660    1.360   .     D
C658   H661    0.950   .     S
C658   C1495   1.360   .     S
C659   H662    0.950   .     S
C659   C1496   1.390   .     S
N660   Fe52    2.096   1_565 S
N660   N1480   1.360   .     S
C663   N665    1.360   .     D
C663   H666    0.950   .     S
C663   C697    1.360   .     S
C664   H667    0.950   .     S
C664   C698    1.390   .     S
C664   C669    1.390   .     D
N665   Fe701   2.096   .     S
N665   N690    1.360   .     S
C668   N670    1.360   .     D
C668   H671    0.950   .     S
C668   C699    1.360   .     S
C669   H672    0.950   .     S
C669   C700    1.390   .     S
N670   N685    1.360   .     S
C673   N675    1.360   .     D
C673   H676    0.950   .     S
C673   C693    1.360   .     S
C674   H677    0.950   .     S
C674   C694    1.390   .     S
C674   C679    1.390   .     D
N675   N3055   1.360   1_554 S
C678   N680    1.360   .     D
C678   H681    0.950   .     S
C678   C695    1.360   .     S
C679   H682    0.950   .     S
C679   C696    1.390   .     S
N680   Fe51    2.096   1_565 S
N680   N3060   1.360   1_554 S
C683   N685    1.360   .     D
C683   H686    0.950   .     S
C683   C699    1.360   .     S
C684   H687    0.950   .     S
C684   C700    1.390   .     S
C684   C689    1.390   .     D
C688   N690    1.360   .     D
C688   H691    0.950   .     S
C688   C697    1.360   .     S
C689   H692    0.950   .     S
C689   C698    1.390   .     S
N690   Fe702   2.096   .     S
C693   C3053   1.360   1_554 S
C693   C694    1.450   .     D
C694   C3054   1.390   1_554 S
C695   C3058   1.360   1_554 S
C695   C696    1.450   .     D
C696   C3059   1.390   1_554 S
C697   C698    1.450   .     D
C699   C700    1.450   .     D
Fe701  N725    2.096   .     S
Fe701  N720    2.096   .     S
Fe702  N735    2.096   .     S
Fe702  N705    2.096   .     S
C703   N705    1.360   .     D
C703   H706    0.950   .     S
C703   C1543   1.360   .     S
C704   H707    0.950   .     S
C704   C1544   1.390   .     S
C704   C709    1.390   .     D
N705   N1525   1.360   .     S
C708   N710    1.360   .     D
C708   H711    0.950   .     S
C708   C1545   1.360   .     S
C709   H712    0.950   .     S
C709   C1546   1.390   .     S
N710   Fe102   2.096   1_565 S
N710   N1530   1.360   .     S
C713   N715    1.360   .     D
C713   H716    0.950   .     S
C713   C747    1.360   .     S
C714   H717    0.950   .     S
C714   C748    1.390   .     S
C714   C719    1.390   .     D
N715   Fe751   2.096   .     S
N715   N740    1.360   .     S
C718   N720    1.360   .     D
C718   H721    0.950   .     S
C718   C749    1.360   .     S
C719   H722    0.950   .     S
C719   C750    1.390   .     S
N720   N735    1.360   .     S
C723   N725    1.360   .     D
C723   H726    0.950   .     S
C723   C743    1.360   .     S
C724   H727    0.950   .     S
C724   C744    1.390   .     S
C724   C729    1.390   .     D
N725   N3105   1.360   1_554 S
C728   N730    1.360   .     D
C728   H731    0.950   .     S
C728   C745    1.360   .     S
C729   H732    0.950   .     S
C729   C746    1.390   .     S
N730   Fe101   2.096   1_565 S
N730   N3110   1.360   1_554 S
C733   N735    1.360   .     D
C733   H736    0.950   .     S
C733   C749    1.360   .     S
C734   H737    0.950   .     S
C734   C750    1.390   .     S
C734   C739    1.390   .     D
C738   N740    1.360   .     D
C738   H741    0.950   .     S
C738   C747    1.360   .     S
C739   H742    0.950   .     S
C739   C748    1.390   .     S
N740   Fe752   2.096   .     S
C743   C3103   1.360   1_554 S
C743   C744    1.450   .     D
C744   C3104   1.390   1_554 S
C745   C3108   1.360   1_554 S
C745   C746    1.450   .     D
C746   C3109   1.390   1_554 S
C747   C748    1.450   .     D
C749   C750    1.450   .     D
Fe751  N775    2.096   .     S
Fe751  N770    2.096   .     S
Fe752  N785    2.096   .     S
Fe752  N755    2.096   .     S
C753   N755    1.360   .     D
C753   H756    0.950   .     S
C753   C1593   1.360   .     S
C754   H757    0.950   .     S
C754   C1594   1.390   .     S
C754   C759    1.390   .     D
N755   N1575   1.360   .     S
C758   N760    1.360   .     D
C758   H761    0.950   .     S
C758   C1595   1.360   .     S
C759   H762    0.950   .     S
C759   C1596   1.390   .     S
N760   Fe152   2.096   1_565 S
N760   N1580   1.360   .     S
C763   N765    1.360   .     D
C763   H766    0.950   .     S
C763   C797    1.360   .     S
C764   H767    0.950   .     S
C764   C798    1.390   .     S
C764   C769    1.390   .     D
N765   Fe601   2.096   1_655 S
N765   N790    1.360   .     S
C768   N770    1.360   .     D
C768   H771    0.950   .     S
C768   C799    1.360   .     S
C769   H772    0.950   .     S
C769   C800    1.390   .     S
N770   N785    1.360   .     S
C773   N775    1.360   .     D
C773   H776    0.950   .     S
C773   C793    1.360   .     S
C774   H777    0.950   .     S
C774   C794    1.390   .     S
C774   C779    1.390   .     D
N775   N3155   1.360   1_554 S
C778   N780    1.360   .     D
C778   H781    0.950   .     S
C778   C795    1.360   .     S
C779   H782    0.950   .     S
C779   C796    1.390   .     S
N780   Fe151   2.096   1_565 S
N780   N3160   1.360   1_554 S
C783   N785    1.360   .     D
C783   H786    0.950   .     S
C783   C799    1.360   .     S
C784   H787    0.950   .     S
C784   C800    1.390   .     S
C784   C789    1.390   .     D
C788   N790    1.360   .     D
C788   H791    0.950   .     S
C788   C797    1.360   .     S
C789   H792    0.950   .     S
C789   C798    1.390   .     S
N790   Fe602   2.096   1_655 S
C793   C3153   1.360   1_554 S
C793   C794    1.450   .     D
C794   C3154   1.390   1_554 S
C795   C3158   1.360   1_554 S
C795   C796    1.450   .     D
C796   C3159   1.390   1_554 S
C797   C798    1.450   .     D
C799   C800    1.450   .     D
Fe801  N825    2.096   .     S
Fe801  N1430   2.096   1_545 S
Fe801  N820    2.096   .     S
Fe801  N965    2.096   1_455 S
Fe802  N990    2.096   1_455 S
Fe802  N835    2.096   .     S
Fe802  N805    2.096   .     S
Fe802  N1410   2.096   1_545 S
C803   N805    1.360   .     D
C803   H806    0.950   .     S
C803   C1643   1.360   .     S
C804   H807    0.950   .     S
C804   C1644   1.390   .     S
C804   C809    1.390   .     D
N805   N1625   1.360   .     S
C808   N810    1.360   .     D
C808   H811    0.950   .     S
C808   C1645   1.360   .     S
C809   H812    0.950   .     S
C809   C1646   1.390   .     S
N810   Fe1002  2.096   .     S
N810   N1630   1.360   .     S
C813   N815    1.360   .     D
C813   H816    0.950   .     S
C813   C847    1.360   .     S
C814   H817    0.950   .     S
C814   C848    1.390   .     S
C814   C819    1.390   .     D
N815   Fe851   2.096   .     S
N815   N840    1.360   .     S
C818   N820    1.360   .     D
C818   H821    0.950   .     S
C818   C849    1.360   .     S
C819   H822    0.950   .     S
C819   C850    1.390   .     S
N820   N835    1.360   .     S
C823   N825    1.360   .     D
C823   H826    0.950   .     S
C823   C843    1.360   .     S
C824   H827    0.950   .     S
C824   C844    1.390   .     S
C824   C829    1.390   .     D
C828   N830    1.360   .     D
C828   H831    0.950   .     S
C828   C845    1.360   .     S
C829   H832    0.950   .     S
C829   C846    1.390   .     S
N830   Fe1001  2.096   .     S
C833   N835    1.360   .     D
C833   H836    0.950   .     S
C833   C849    1.360   .     S
C834   H837    0.950   .     S
C834   C850    1.390   .     S
C834   C839    1.390   .     D
C838   N840    1.360   .     D
C838   H841    0.950   .     S
C838   C847    1.360   .     S
C839   H842    0.950   .     S
C839   C848    1.390   .     S
N840   Fe852   2.096   .     S
C843   C844    1.450   .     D
C845   C846    1.450   .     D
C847   C848    1.450   .     D
C849   C850    1.450   .     D
Fe851  N875    2.096   .     S
Fe851  N1480   2.096   1_545 S
Fe851  N870    2.096   .     S
Fe852  N885    2.096   .     S
Fe852  N855    2.096   .     S
Fe852  N1460   2.096   1_545 S
C853   N855    1.360   .     D
C853   H856    0.950   .     S
C853   C1693   1.360   .     S
C854   H857    0.950   .     S
C854   C1694   1.390   .     S
C854   C859    1.390   .     D
N855   N1675   1.360   .     S
C858   N860    1.360   .     D
C858   H861    0.950   .     S
C858   C1695   1.360   .     S
C859   H862    0.950   .     S
C859   C1696   1.390   .     S
N860   Fe1052  2.096   .     S
N860   N1680   1.360   .     S
C863   N865    1.360   .     D
C863   H866    0.950   .     S
C863   C897    1.360   .     S
C864   H867    0.950   .     S
C864   C898    1.390   .     S
C864   C869    1.390   .     D
N865   Fe901   2.096   .     S
N865   N890    1.360   .     S
C868   N870    1.360   .     D
C868   H871    0.950   .     S
C868   C899    1.360   .     S
C869   H872    0.950   .     S
C869   C900    1.390   .     S
N870   N885    1.360   .     S
C873   N875    1.360   .     D
C873   H876    0.950   .     S
C873   C893    1.360   .     S
C874   H877    0.950   .     S
C874   C894    1.390   .     S
C874   C879    1.390   .     D
C878   N880    1.360   .     D
C878   H881    0.950   .     S
C878   C895    1.360   .     S
C879   H882    0.950   .     S
C879   C896    1.390   .     S
N880   Fe1051  2.096   .     S
C883   N885    1.360   .     D
C883   H886    0.950   .     S
C883   C899    1.360   .     S
C884   H887    0.950   .     S
C884   C900    1.390   .     S
C884   C889    1.390   .     D
C888   N890    1.360   .     D
C888   H891    0.950   .     S
C888   C897    1.360   .     S
C889   H892    0.950   .     S
C889   C898    1.390   .     S
N890   Fe902   2.096   .     S
C893   C894    1.450   .     D
C895   C896    1.450   .     D
C897   C898    1.450   .     D
C899   C900    1.450   .     D
Fe901  N925    2.096   .     S
Fe901  N1530   2.096   1_545 S
Fe901  N920    2.096   .     S
Fe902  N935    2.096   .     S
Fe902  N905    2.096   .     S
Fe902  N1510   2.096   1_545 S
C903   N905    1.360   .     D
C903   H906    0.950   .     S
C903   C1743   1.360   .     S
C904   H907    0.950   .     S
C904   C1744   1.390   .     S
C904   C909    1.390   .     D
N905   N1725   1.360   .     S
C908   N910    1.360   .     D
C908   H911    0.950   .     S
C908   C1745   1.360   .     S
C909   H912    0.950   .     S
C909   C1746   1.390   .     S
N910   Fe1102  2.096   .     S
N910   N1730   1.360   .     S
C913   N915    1.360   .     D
C913   H916    0.950   .     S
C913   C947    1.360   .     S
C914   H917    0.950   .     S
C914   C948    1.390   .     S
C914   C919    1.390   .     D
N915   Fe951   2.096   .     S
N915   N940    1.360   .     S
C918   N920    1.360   .     D
C918   H921    0.950   .     S
C918   C949    1.360   .     S
C919   H922    0.950   .     S
C919   C950    1.390   .     S
N920   N935    1.360   .     S
C923   N925    1.360   .     D
C923   H926    0.950   .     S
C923   C943    1.360   .     S
C924   H927    0.950   .     S
C924   C944    1.390   .     S
C924   C929    1.390   .     D
C928   N930    1.360   .     D
C928   H931    0.950   .     S
C928   C945    1.360   .     S
C929   H932    0.950   .     S
C929   C946    1.390   .     S
N930   Fe1101  2.096   .     S
C933   N935    1.360   .     D
C933   H936    0.950   .     S
C933   C949    1.360   .     S
C934   H937    0.950   .     S
C934   C950    1.390   .     S
C934   C939    1.390   .     D
C938   N940    1.360   .     D
C938   H941    0.950   .     S
C938   C947    1.360   .     S
C939   H942    0.950   .     S
C939   C948    1.390   .     S
N940   Fe952   2.096   .     S
C943   C944    1.450   .     D
C945   C946    1.450   .     D
C947   C948    1.450   .     D
C949   C950    1.450   .     D
Fe951  N975    2.096   .     S
Fe951  N1580   2.096   1_545 S
Fe951  N970    2.096   .     S
Fe952  N985    2.096   .     S
Fe952  N955    2.096   .     S
Fe952  N1560   2.096   1_545 S
C953   N955    1.360   .     D
C953   H956    0.950   .     S
C953   C1793   1.360   .     S
C954   H957    0.950   .     S
C954   C1794   1.390   .     S
C954   C959    1.390   .     D
N955   N1775   1.360   .     S
C958   N960    1.360   .     D
C958   H961    0.950   .     S
C958   C1795   1.360   .     S
C959   H962    0.950   .     S
C959   C1796   1.390   .     S
N960   Fe1152  2.096   .     S
N960   N1780   1.360   .     S
C963   N965    1.360   .     D
C963   H966    0.950   .     S
C963   C997    1.360   .     S
C964   H967    0.950   .     S
C964   C998    1.390   .     S
C964   C969    1.390   .     D
N965   Fe801   2.096   1_655 S
N965   N990    1.360   .     S
C968   N970    1.360   .     D
C968   H971    0.950   .     S
C968   C999    1.360   .     S
C969   H972    0.950   .     S
C969   C1000   1.390   .     S
N970   N985    1.360   .     S
C973   N975    1.360   .     D
C973   H976    0.950   .     S
C973   C993    1.360   .     S
C974   H977    0.950   .     S
C974   C994    1.390   .     S
C974   C979    1.390   .     D
C978   N980    1.360   .     D
C978   H981    0.950   .     S
C978   C995    1.360   .     S
C979   H982    0.950   .     S
C979   C996    1.390   .     S
N980   Fe1151  2.096   .     S
C983   N985    1.360   .     D
C983   H986    0.950   .     S
C983   C999    1.360   .     S
C984   H987    0.950   .     S
C984   C1000   1.390   .     S
C984   C989    1.390   .     D
C988   N990    1.360   .     D
C988   H991    0.950   .     S
C988   C997    1.360   .     S
C989   H992    0.950   .     S
C989   C998    1.390   .     S
N990   Fe802   2.096   1_655 S
C993   C994    1.450   .     D
C995   C996    1.450   .     D
C997   C998    1.450   .     D
C999   C1000   1.450   .     D
Fe1001 N1025   2.096   .     S
Fe1001 N1020   2.096   .     S
Fe1001 N1165   2.096   1_455 S
Fe1002 N1190   2.096   1_455 S
Fe1002 N1035   2.096   .     S
Fe1002 N1005   2.096   .     S
C1003  N1005   1.360   .     D
C1003  H1006   0.950   .     S
C1003  C1843   1.360   .     S
C1004  H1007   0.950   .     S
C1004  C1844   1.390   .     S
C1004  C1009   1.390   .     D
N1005  N1825   1.360   .     S
C1008  N1010   1.360   .     D
C1008  H1011   0.950   .     S
C1008  C1845   1.360   .     S
C1009  H1012   0.950   .     S
C1009  C1846   1.390   .     S
N1010  Fe1202  2.096   .     S
N1010  N1830   1.360   .     S
C1013  N1015   1.360   .     D
C1013  H1016   0.950   .     S
C1013  C1047   1.360   .     S
C1014  H1017   0.950   .     S
C1014  C1048   1.390   .     S
C1014  C1019   1.390   .     D
N1015  Fe1051  2.096   .     S
N1015  N1040   1.360   .     S
C1018  N1020   1.360   .     D
C1018  H1021   0.950   .     S
C1018  C1049   1.360   .     S
C1019  H1022   0.950   .     S
C1019  C1050   1.390   .     S
N1020  N1035   1.360   .     S
C1023  N1025   1.360   .     D
C1023  H1026   0.950   .     S
C1023  C1043   1.360   .     S
C1024  H1027   0.950   .     S
C1024  C1044   1.390   .     S
C1024  C1029   1.390   .     D
C1028  N1030   1.360   .     D
C1028  H1031   0.950   .     S
C1028  C1045   1.360   .     S
C1029  H1032   0.950   .     S
C1029  C1046   1.390   .     S
N1030  Fe1201  2.096   .     S
C1033  N1035   1.360   .     D
C1033  H1036   0.950   .     S
C1033  C1049   1.360   .     S
C1034  H1037   0.950   .     S
C1034  C1050   1.390   .     S
C1034  C1039   1.390   .     D
C1038  N1040   1.360   .     D
C1038  H1041   0.950   .     S
C1038  C1047   1.360   .     S
C1039  H1042   0.950   .     S
C1039  C1048   1.390   .     S
N1040  Fe1052  2.096   .     S
C1043  C1044   1.450   .     D
C1045  C1046   1.450   .     D
C1047  C1048   1.450   .     D
C1049  C1050   1.450   .     D
Fe1051 N1075   2.096   .     S
Fe1051 N1070   2.096   .     S
Fe1052 N1085   2.096   .     S
Fe1052 N1055   2.096   .     S
C1053  N1055   1.360   .     D
C1053  H1056   0.950   .     S
C1053  C1893   1.360   .     S
C1054  H1057   0.950   .     S
C1054  C1894   1.390   .     S
C1054  C1059   1.390   .     D
N1055  N1875   1.360   .     S
C1058  N1060   1.360   .     D
C1058  H1061   0.950   .     S
C1058  C1895   1.360   .     S
C1059  H1062   0.950   .     S
C1059  C1896   1.390   .     S
N1060  Fe1252  2.096   .     S
N1060  N1880   1.360   .     S
C1063  N1065   1.360   .     D
C1063  H1066   0.950   .     S
C1063  C1097   1.360   .     S
C1064  H1067   0.950   .     S
C1064  C1098   1.390   .     S
C1064  C1069   1.390   .     D
N1065  Fe1101  2.096   .     S
N1065  N1090   1.360   .     S
C1068  N1070   1.360   .     D
C1068  H1071   0.950   .     S
C1068  C1099   1.360   .     S
C1069  H1072   0.950   .     S
C1069  C1100   1.390   .     S
N1070  N1085   1.360   .     S
C1073  N1075   1.360   .     D
C1073  H1076   0.950   .     S
C1073  C1093   1.360   .     S
C1074  H1077   0.950   .     S
C1074  C1094   1.390   .     S
C1074  C1079   1.390   .     D
C1078  N1080   1.360   .     D
C1078  H1081   0.950   .     S
C1078  C1095   1.360   .     S
C1079  H1082   0.950   .     S
C1079  C1096   1.390   .     S
N1080  Fe1251  2.096   .     S
C1083  N1085   1.360   .     D
C1083  H1086   0.950   .     S
C1083  C1099   1.360   .     S
C1084  H1087   0.950   .     S
C1084  C1100   1.390   .     S
C1084  C1089   1.390   .     D
C1088  N1090   1.360   .     D
C1088  H1091   0.950   .     S
C1088  C1097   1.360   .     S
C1089  H1092   0.950   .     S
C1089  C1098   1.390   .     S
N1090  Fe1102  2.096   .     S
C1093  C1094   1.450   .     D
C1095  C1096   1.450   .     D
C1097  C1098   1.450   .     D
C1099  C1100   1.450   .     D
Fe1101 N1125   2.096   .     S
Fe1101 N1120   2.096   .     S
Fe1102 N1135   2.096   .     S
Fe1102 N1105   2.096   .     S
C1103  N1105   1.360   .     D
C1103  H1106   0.950   .     S
C1103  C1943   1.360   .     S
C1104  H1107   0.950   .     S
C1104  C1944   1.390   .     S
C1104  C1109   1.390   .     D
N1105  N1925   1.360   .     S
C1108  N1110   1.360   .     D
C1108  H1111   0.950   .     S
C1108  C1945   1.360   .     S
C1109  H1112   0.950   .     S
C1109  C1946   1.390   .     S
N1110  Fe1302  2.096   .     S
N1110  N1930   1.360   .     S
C1113  N1115   1.360   .     D
C1113  H1116   0.950   .     S
C1113  C1147   1.360   .     S
C1114  H1117   0.950   .     S
C1114  C1148   1.390   .     S
C1114  C1119   1.390   .     D
N1115  Fe1151  2.096   .     S
N1115  N1140   1.360   .     S
C1118  N1120   1.360   .     D
C1118  H1121   0.950   .     S
C1118  C1149   1.360   .     S
C1119  H1122   0.950   .     S
C1119  C1150   1.390   .     S
N1120  N1135   1.360   .     S
C1123  N1125   1.360   .     D
C1123  H1126   0.950   .     S
C1123  C1143   1.360   .     S
C1124  H1127   0.950   .     S
C1124  C1144   1.390   .     S
C1124  C1129   1.390   .     D
C1128  N1130   1.360   .     D
C1128  H1131   0.950   .     S
C1128  C1145   1.360   .     S
C1129  H1132   0.950   .     S
C1129  C1146   1.390   .     S
N1130  Fe1301  2.096   .     S
C1133  N1135   1.360   .     D
C1133  H1136   0.950   .     S
C1133  C1149   1.360   .     S
C1134  H1137   0.950   .     S
C1134  C1150   1.390   .     S
C1134  C1139   1.390   .     D
C1138  N1140   1.360   .     D
C1138  H1141   0.950   .     S
C1138  C1147   1.360   .     S
C1139  H1142   0.950   .     S
C1139  C1148   1.390   .     S
N1140  Fe1152  2.096   .     S
C1143  C1144   1.450   .     D
C1145  C1146   1.450   .     D
C1147  C1148   1.450   .     D
C1149  C1150   1.450   .     D
Fe1151 N1175   2.096   .     S
Fe1151 N1170   2.096   .     S
Fe1152 N1185   2.096   .     S
Fe1152 N1155   2.096   .     S
C1153  N1155   1.360   .     D
C1153  H1156   0.950   .     S
C1153  C1993   1.360   .     S
C1154  H1157   0.950   .     S
C1154  C1994   1.390   .     S
C1154  C1159   1.390   .     D
N1155  N1975   1.360   .     S
C1158  N1160   1.360   .     D
C1158  H1161   0.950   .     S
C1158  C1995   1.360   .     S
C1159  H1162   0.950   .     S
C1159  C1996   1.390   .     S
N1160  Fe1352  2.096   .     S
N1160  N1980   1.360   .     S
C1163  N1165   1.360   .     D
C1163  H1166   0.950   .     S
C1163  C1197   1.360   .     S
C1164  H1167   0.950   .     S
C1164  C1198   1.390   .     S
C1164  C1169   1.390   .     D
N1165  Fe1001  2.096   1_655 S
N1165  N1190   1.360   .     S
C1168  N1170   1.360   .     D
C1168  H1171   0.950   .     S
C1168  C1199   1.360   .     S
C1169  H1172   0.950   .     S
C1169  C1200   1.390   .     S
N1170  N1185   1.360   .     S
C1173  N1175   1.360   .     D
C1173  H1176   0.950   .     S
C1173  C1193   1.360   .     S
C1174  H1177   0.950   .     S
C1174  C1194   1.390   .     S
C1174  C1179   1.390   .     D
C1178  N1180   1.360   .     D
C1178  H1181   0.950   .     S
C1178  C1195   1.360   .     S
C1179  H1182   0.950   .     S
C1179  C1196   1.390   .     S
N1180  Fe1351  2.096   .     S
C1183  N1185   1.360   .     D
C1183  H1186   0.950   .     S
C1183  C1199   1.360   .     S
C1184  H1187   0.950   .     S
C1184  C1200   1.390   .     S
C1184  C1189   1.390   .     D
C1188  N1190   1.360   .     D
C1188  H1191   0.950   .     S
C1188  C1197   1.360   .     S
C1189  H1192   0.950   .     S
C1189  C1198   1.390   .     S
N1190  Fe1002  2.096   1_655 S
C1193  C1194   1.450   .     D
C1195  C1196   1.450   .     D
C1197  C1198   1.450   .     D
C1199  C1200   1.450   .     D
Fe1201 N1225   2.096   .     S
Fe1201 N1220   2.096   .     S
Fe1201 N1365   2.096   1_455 S
Fe1202 N1390   2.096   1_455 S
Fe1202 N1235   2.096   .     S
Fe1202 N1205   2.096   .     S
C1203  N1205   1.360   .     D
C1203  H1206   0.950   .     S
C1203  C2043   1.360   .     S
C1204  H1207   0.950   .     S
C1204  C2044   1.390   .     S
C1204  C1209   1.390   .     D
N1205  N2025   1.360   .     S
C1208  N1210   1.360   .     D
C1208  H1211   0.950   .     S
C1208  C2045   1.360   .     S
C1209  H1212   0.950   .     S
C1209  C2046   1.390   .     S
N1210  Fe1402  2.096   .     S
N1210  N2030   1.360   .     S
C1213  N1215   1.360   .     D
C1213  H1216   0.950   .     S
C1213  C1247   1.360   .     S
C1214  H1217   0.950   .     S
C1214  C1248   1.390   .     S
C1214  C1219   1.390   .     D
N1215  Fe1251  2.096   .     S
N1215  N1240   1.360   .     S
C1218  N1220   1.360   .     D
C1218  H1221   0.950   .     S
C1218  C1249   1.360   .     S
C1219  H1222   0.950   .     S
C1219  C1250   1.390   .     S
N1220  N1235   1.360   .     S
C1223  N1225   1.360   .     D
C1223  H1226   0.950   .     S
C1223  C1243   1.360   .     S
C1224  H1227   0.950   .     S
C1224  C1244   1.390   .     S
C1224  C1229   1.390   .     D
C1228  N1230   1.360   .     D
C1228  H1231   0.950   .     S
C1228  C1245   1.360   .     S
C1229  H1232   0.950   .     S
C1229  C1246   1.390   .     S
N1230  Fe1401  2.096   .     S
C1233  N1235   1.360   .     D
C1233  H1236   0.950   .     S
C1233  C1249   1.360   .     S
C1234  H1237   0.950   .     S
C1234  C1250   1.390   .     S
C1234  C1239   1.390   .     D
C1238  N1240   1.360   .     D
C1238  H1241   0.950   .     S
C1238  C1247   1.360   .     S
C1239  H1242   0.950   .     S
C1239  C1248   1.390   .     S
N1240  Fe1252  2.096   .     S
C1243  C1244   1.450   .     D
C1245  C1246   1.450   .     D
C1247  C1248   1.450   .     D
C1249  C1250   1.450   .     D
Fe1251 N1275   2.096   .     S
Fe1251 N1270   2.096   .     S
Fe1252 N1285   2.096   .     S
Fe1252 N1255   2.096   .     S
C1253  N1255   1.360   .     D
C1253  H1256   0.950   .     S
C1253  C2093   1.360   .     S
C1254  H1257   0.950   .     S
C1254  C2094   1.390   .     S
C1254  C1259   1.390   .     D
N1255  N2075   1.360   .     S
C1258  N1260   1.360   .     D
C1258  H1261   0.950   .     S
C1258  C2095   1.360   .     S
C1259  H1262   0.950   .     S
C1259  C2096   1.390   .     S
N1260  Fe1452  2.096   .     S
N1260  N2080   1.360   .     S
C1263  N1265   1.360   .     D
C1263  H1266   0.950   .     S
C1263  C1297   1.360   .     S
C1264  H1267   0.950   .     S
C1264  C1298   1.390   .     S
C1264  C1269   1.390   .     D
N1265  Fe1301  2.096   .     S
N1265  N1290   1.360   .     S
C1268  N1270   1.360   .     D
C1268  H1271   0.950   .     S
C1268  C1299   1.360   .     S
C1269  H1272   0.950   .     S
C1269  C1300   1.390   .     S
N1270  N1285   1.360   .     S
C1273  N1275   1.360   .     D
C1273  H1276   0.950   .     S
C1273  C1293   1.360   .     S
C1274  H1277   0.950   .     S
C1274  C1294   1.390   .     S
C1274  C1279   1.390   .     D
C1278  N1280   1.360   .     D
C1278  H1281   0.950   .     S
C1278  C1295   1.360   .     S
C1279  H1282   0.950   .     S
C1279  C1296   1.390   .     S
N1280  Fe1451  2.096   .     S
C1283  N1285   1.360   .     D
C1283  H1286   0.950   .     S
C1283  C1299   1.360   .     S
C1284  H1287   0.950   .     S
C1284  C1300   1.390   .     S
C1284  C1289   1.390   .     D
C1288  N1290   1.360   .     D
C1288  H1291   0.950   .     S
C1288  C1297   1.360   .     S
C1289  H1292   0.950   .     S
C1289  C1298   1.390   .     S
N1290  Fe1302  2.096   .     S
C1293  C1294   1.450   .     D
C1295  C1296   1.450   .     D
C1297  C1298   1.450   .     D
C1299  C1300   1.450   .     D
Fe1301 N1325   2.096   .     S
Fe1301 N1320   2.096   .     S
Fe1302 N1335   2.096   .     S
Fe1302 N1305   2.096   .     S
C1303  N1305   1.360   .     D
C1303  H1306   0.950   .     S
C1303  C2143   1.360   .     S
C1304  H1307   0.950   .     S
C1304  C2144   1.390   .     S
C1304  C1309   1.390   .     D
N1305  N2125   1.360   .     S
C1308  N1310   1.360   .     D
C1308  H1311   0.950   .     S
C1308  C2145   1.360   .     S
C1309  H1312   0.950   .     S
C1309  C2146   1.390   .     S
N1310  Fe1502  2.096   .     S
N1310  N2130   1.360   .     S
C1313  N1315   1.360   .     D
C1313  H1316   0.950   .     S
C1313  C1347   1.360   .     S
C1314  H1317   0.950   .     S
C1314  C1348   1.390   .     S
C1314  C1319   1.390   .     D
N1315  Fe1351  2.096   .     S
N1315  N1340   1.360   .     S
C1318  N1320   1.360   .     D
C1318  H1321   0.950   .     S
C1318  C1349   1.360   .     S
C1319  H1322   0.950   .     S
C1319  C1350   1.390   .     S
N1320  N1335   1.360   .     S
C1323  N1325   1.360   .     D
C1323  H1326   0.950   .     S
C1323  C1343   1.360   .     S
C1324  H1327   0.950   .     S
C1324  C1344   1.390   .     S
C1324  C1329   1.390   .     D
C1328  N1330   1.360   .     D
C1328  H1331   0.950   .     S
C1328  C1345   1.360   .     S
C1329  H1332   0.950   .     S
C1329  C1346   1.390   .     S
N1330  Fe1501  2.096   .     S
C1333  N1335   1.360   .     D
C1333  H1336   0.950   .     S
C1333  C1349   1.360   .     S
C1334  H1337   0.950   .     S
C1334  C1350   1.390   .     S
C1334  C1339   1.390   .     D
C1338  N1340   1.360   .     D
C1338  H1341   0.950   .     S
C1338  C1347   1.360   .     S
C1339  H1342   0.950   .     S
C1339  C1348   1.390   .     S
N1340  Fe1352  2.096   .     S
C1343  C1344   1.450   .     D
C1345  C1346   1.450   .     D
C1347  C1348   1.450   .     D
C1349  C1350   1.450   .     D
Fe1351 N1375   2.096   .     S
Fe1351 N1370   2.096   .     S
Fe1352 N1385   2.096   .     S
Fe1352 N1355   2.096   .     S
C1353  N1355   1.360   .     D
C1353  H1356   0.950   .     S
C1353  C2193   1.360   .     S
C1354  H1357   0.950   .     S
C1354  C2194   1.390   .     S
C1354  C1359   1.390   .     D
N1355  N2175   1.360   .     S
C1358  N1360   1.360   .     D
C1358  H1361   0.950   .     S
C1358  C2195   1.360   .     S
C1359  H1362   0.950   .     S
C1359  C2196   1.390   .     S
N1360  Fe1552  2.096   .     S
N1360  N2180   1.360   .     S
C1363  N1365   1.360   .     D
C1363  H1366   0.950   .     S
C1363  C1397   1.360   .     S
C1364  H1367   0.950   .     S
C1364  C1398   1.390   .     S
C1364  C1369   1.390   .     D
N1365  Fe1201  2.096   1_655 S
N1365  N1390   1.360   .     S
C1368  N1370   1.360   .     D
C1368  H1371   0.950   .     S
C1368  C1399   1.360   .     S
C1369  H1372   0.950   .     S
C1369  C1400   1.390   .     S
N1370  N1385   1.360   .     S
C1373  N1375   1.360   .     D
C1373  H1376   0.950   .     S
C1373  C1393   1.360   .     S
C1374  H1377   0.950   .     S
C1374  C1394   1.390   .     S
C1374  C1379   1.390   .     D
C1378  N1380   1.360   .     D
C1378  H1381   0.950   .     S
C1378  C1395   1.360   .     S
C1379  H1382   0.950   .     S
C1379  C1396   1.390   .     S
N1380  Fe1551  2.096   .     S
C1383  N1385   1.360   .     D
C1383  H1386   0.950   .     S
C1383  C1399   1.360   .     S
C1384  H1387   0.950   .     S
C1384  C1400   1.390   .     S
C1384  C1389   1.390   .     D
C1388  N1390   1.360   .     D
C1388  H1391   0.950   .     S
C1388  C1397   1.360   .     S
C1389  H1392   0.950   .     S
C1389  C1398   1.390   .     S
N1390  Fe1202  2.096   1_655 S
C1393  C1394   1.450   .     D
C1395  C1396   1.450   .     D
C1397  C1398   1.450   .     D
C1399  C1400   1.450   .     D
Fe1401 N1425   2.096   .     S
Fe1401 N1420   2.096   .     S
Fe1401 N1565   2.096   1_455 S
Fe1402 N1590   2.096   1_455 S
Fe1402 N1435   2.096   .     S
Fe1402 N1405   2.096   .     S
C1403  N1405   1.360   .     D
C1403  H1406   0.950   .     S
C1403  C2243   1.360   .     S
C1404  H1407   0.950   .     S
C1404  C2244   1.390   .     S
C1404  C1409   1.390   .     D
N1405  N2225   1.360   .     S
C1408  N1410   1.360   .     D
C1408  H1411   0.950   .     S
C1408  C2245   1.360   .     S
C1409  H1412   0.950   .     S
C1409  C2246   1.390   .     S
N1410  Fe802   2.096   1_565 S
N1410  N2230   1.360   .     S
C1413  N1415   1.360   .     D
C1413  H1416   0.950   .     S
C1413  C1447   1.360   .     S
C1414  H1417   0.950   .     S
C1414  C1448   1.390   .     S
C1414  C1419   1.390   .     D
N1415  Fe1451  2.096   .     S
N1415  N1440   1.360   .     S
C1418  N1420   1.360   .     D
C1418  H1421   0.950   .     S
C1418  C1449   1.360   .     S
C1419  H1422   0.950   .     S
C1419  C1450   1.390   .     S
N1420  N1435   1.360   .     S
C1423  N1425   1.360   .     D
C1423  H1426   0.950   .     S
C1423  C1443   1.360   .     S
C1424  H1427   0.950   .     S
C1424  C1444   1.390   .     S
C1424  C1429   1.390   .     D
C1428  N1430   1.360   .     D
C1428  H1431   0.950   .     S
C1428  C1445   1.360   .     S
C1429  H1432   0.950   .     S
C1429  C1446   1.390   .     S
N1430  Fe801   2.096   1_565 S
C1433  N1435   1.360   .     D
C1433  H1436   0.950   .     S
C1433  C1449   1.360   .     S
C1434  H1437   0.950   .     S
C1434  C1450   1.390   .     S
C1434  C1439   1.390   .     D
C1438  N1440   1.360   .     D
C1438  H1441   0.950   .     S
C1438  C1447   1.360   .     S
C1439  H1442   0.950   .     S
C1439  C1448   1.390   .     S
N1440  Fe1452  2.096   .     S
C1443  C1444   1.450   .     D
C1445  C1446   1.450   .     D
C1447  C1448   1.450   .     D
C1449  C1450   1.450   .     D
Fe1451 N1475   2.096   .     S
Fe1451 N1470   2.096   .     S
Fe1452 N1485   2.096   .     S
Fe1452 N1455   2.096   .     S
C1453  N1455   1.360   .     D
C1453  H1456   0.950   .     S
C1453  C2293   1.360   .     S
C1454  H1457   0.950   .     S
C1454  C2294   1.390   .     S
C1454  C1459   1.390   .     D
N1455  N2275   1.360   .     S
C1458  N1460   1.360   .     D
C1458  H1461   0.950   .     S
C1458  C2295   1.360   .     S
C1459  H1462   0.950   .     S
C1459  C2296   1.390   .     S
N1460  Fe852   2.096   1_565 S
N1460  N2280   1.360   .     S
C1463  N1465   1.360   .     D
C1463  H1466   0.950   .     S
C1463  C1497   1.360   .     S
C1464  H1467   0.950   .     S
C1464  C1498   1.390   .     S
C1464  C1469   1.390   .     D
N1465  Fe1501  2.096   .     S
N1465  N1490   1.360   .     S
C1468  N1470   1.360   .     D
C1468  H1471   0.950   .     S
C1468  C1499   1.360   .     S
C1469  H1472   0.950   .     S
C1469  C1500   1.390   .     S
N1470  N1485   1.360   .     S
C1473  N1475   1.360   .     D
C1473  H1476   0.950   .     S
C1473  C1493   1.360   .     S
C1474  H1477   0.950   .     S
C1474  C1494   1.390   .     S
C1474  C1479   1.390   .     D
C1478  N1480   1.360   .     D
C1478  H1481   0.950   .     S
C1478  C1495   1.360   .     S
C1479  H1482   0.950   .     S
C1479  C1496   1.390   .     S
N1480  Fe851   2.096   1_565 S
C1483  N1485   1.360   .     D
C1483  H1486   0.950   .     S
C1483  C1499   1.360   .     S
C1484  H1487   0.950   .     S
C1484  C1500   1.390   .     S
C1484  C1489   1.390   .     D
C1488  N1490   1.360   .     D
C1488  H1491   0.950   .     S
C1488  C1497   1.360   .     S
C1489  H1492   0.950   .     S
C1489  C1498   1.390   .     S
N1490  Fe1502  2.096   .     S
C1493  C1494   1.450   .     D
C1495  C1496   1.450   .     D
C1497  C1498   1.450   .     D
C1499  C1500   1.450   .     D
Fe1501 N1525   2.096   .     S
Fe1501 N1520   2.096   .     S
Fe1502 N1535   2.096   .     S
Fe1502 N1505   2.096   .     S
C1503  N1505   1.360   .     D
C1503  H1506   0.950   .     S
C1503  C2343   1.360   .     S
C1504  H1507   0.950   .     S
C1504  C2344   1.390   .     S
C1504  C1509   1.390   .     D
N1505  N2325   1.360   .     S
C1508  N1510   1.360   .     D
C1508  H1511   0.950   .     S
C1508  C2345   1.360   .     S
C1509  H1512   0.950   .     S
C1509  C2346   1.390   .     S
N1510  Fe902   2.096   1_565 S
N1510  N2330   1.360   .     S
C1513  N1515   1.360   .     D
C1513  H1516   0.950   .     S
C1513  C1547   1.360   .     S
C1514  H1517   0.950   .     S
C1514  C1548   1.390   .     S
C1514  C1519   1.390   .     D
N1515  Fe1551  2.096   .     S
N1515  N1540   1.360   .     S
C1518  N1520   1.360   .     D
C1518  H1521   0.950   .     S
C1518  C1549   1.360   .     S
C1519  H1522   0.950   .     S
C1519  C1550   1.390   .     S
N1520  N1535   1.360   .     S
C1523  N1525   1.360   .     D
C1523  H1526   0.950   .     S
C1523  C1543   1.360   .     S
C1524  H1527   0.950   .     S
C1524  C1544   1.390   .     S
C1524  C1529   1.390   .     D
C1528  N1530   1.360   .     D
C1528  H1531   0.950   .     S
C1528  C1545   1.360   .     S
C1529  H1532   0.950   .     S
C1529  C1546   1.390   .     S
N1530  Fe901   2.096   1_565 S
C1533  N1535   1.360   .     D
C1533  H1536   0.950   .     S
C1533  C1549   1.360   .     S
C1534  H1537   0.950   .     S
C1534  C1550   1.390   .     S
C1534  C1539   1.390   .     D
C1538  N1540   1.360   .     D
C1538  H1541   0.950   .     S
C1538  C1547   1.360   .     S
C1539  H1542   0.950   .     S
C1539  C1548   1.390   .     S
N1540  Fe1552  2.096   .     S
C1543  C1544   1.450   .     D
C1545  C1546   1.450   .     D
C1547  C1548   1.450   .     D
C1549  C1550   1.450   .     D
Fe1551 N1575   2.096   .     S
Fe1551 N1570   2.096   .     S
Fe1552 N1585   2.096   .     S
Fe1552 N1555   2.096   .     S
C1553  N1555   1.360   .     D
C1553  H1556   0.950   .     S
C1553  C2393   1.360   .     S
C1554  H1557   0.950   .     S
C1554  C2394   1.390   .     S
C1554  C1559   1.390   .     D
N1555  N2375   1.360   .     S
C1558  N1560   1.360   .     D
C1558  H1561   0.950   .     S
C1558  C2395   1.360   .     S
C1559  H1562   0.950   .     S
C1559  C2396   1.390   .     S
N1560  Fe952   2.096   1_565 S
N1560  N2380   1.360   .     S
C1563  N1565   1.360   .     D
C1563  H1566   0.950   .     S
C1563  C1597   1.360   .     S
C1564  H1567   0.950   .     S
C1564  C1598   1.390   .     S
C1564  C1569   1.390   .     D
N1565  Fe1401  2.096   1_655 S
N1565  N1590   1.360   .     S
C1568  N1570   1.360   .     D
C1568  H1571   0.950   .     S
C1568  C1599   1.360   .     S
C1569  H1572   0.950   .     S
C1569  C1600   1.390   .     S
N1570  N1585   1.360   .     S
C1573  N1575   1.360   .     D
C1573  H1576   0.950   .     S
C1573  C1593   1.360   .     S
C1574  H1577   0.950   .     S
C1574  C1594   1.390   .     S
C1574  C1579   1.390   .     D
C1578  N1580   1.360   .     D
C1578  H1581   0.950   .     S
C1578  C1595   1.360   .     S
C1579  H1582   0.950   .     S
C1579  C1596   1.390   .     S
N1580  Fe951   2.096   1_565 S
C1583  N1585   1.360   .     D
C1583  H1586   0.950   .     S
C1583  C1599   1.360   .     S
C1584  H1587   0.950   .     S
C1584  C1600   1.390   .     S
C1584  C1589   1.390   .     D
C1588  N1590   1.360   .     D
C1588  H1591   0.950   .     S
C1588  C1597   1.360   .     S
C1589  H1592   0.950   .     S
C1589  C1598   1.390   .     S
N1590  Fe1402  2.096   1_655 S
C1593  C1594   1.450   .     D
C1595  C1596   1.450   .     D
C1597  C1598   1.450   .     D
C1599  C1600   1.450   .     D
Fe1601 N1625   2.096   .     S
Fe1601 N2230   2.096   1_545 S
Fe1601 N1620   2.096   .     S
Fe1601 N1765   2.096   1_455 S
Fe1602 N1790   2.096   1_455 S
Fe1602 N1635   2.096   .     S
Fe1602 N1605   2.096   .     S
Fe1602 N2210   2.096   1_545 S
C1603  N1605   1.360   .     D
C1603  H1606   0.950   .     S
C1603  C2443   1.360   .     S
C1604  H1607   0.950   .     S
C1604  C2444   1.390   .     S
C1604  C1609   1.390   .     D
N1605  N2425   1.360   .     S
C1608  N1610   1.360   .     D
C1608  H1611   0.950   .     S
C1608  C2445   1.360   .     S
C1609  H1612   0.950   .     S
C1609  C2446   1.390   .     S
N1610  Fe1802  2.096   .     S
N1610  N2430   1.360   .     S
C1613  N1615   1.360   .     D
C1613  H1616   0.950   .     S
C1613  C1647   1.360   .     S
C1614  H1617   0.950   .     S
C1614  C1648   1.390   .     S
C1614  C1619   1.390   .     D
N1615  Fe1651  2.096   .     S
N1615  N1640   1.360   .     S
C1618  N1620   1.360   .     D
C1618  H1621   0.950   .     S
C1618  C1649   1.360   .     S
C1619  H1622   0.950   .     S
C1619  C1650   1.390   .     S
N1620  N1635   1.360   .     S
C1623  N1625   1.360   .     D
C1623  H1626   0.950   .     S
C1623  C1643   1.360   .     S
C1624  H1627   0.950   .     S
C1624  C1644   1.390   .     S
C1624  C1629   1.390   .     D
C1628  N1630   1.360   .     D
C1628  H1631   0.950   .     S
C1628  C1645   1.360   .     S
C1629  H1632   0.950   .     S
C1629  C1646   1.390   .     S
N1630  Fe1801  2.096   .     S
C1633  N1635   1.360   .     D
C1633  H1636   0.950   .     S
C1633  C1649   1.360   .     S
C1634  H1637   0.950   .     S
C1634  C1650   1.390   .     S
C1634  C1639   1.390   .     D
C1638  N1640   1.360   .     D
C1638  H1641   0.950   .     S
C1638  C1647   1.360   .     S
C1639  H1642   0.950   .     S
C1639  C1648   1.390   .     S
N1640  Fe1652  2.096   .     S
C1643  C1644   1.450   .     D
C1645  C1646   1.450   .     D
C1647  C1648   1.450   .     D
C1649  C1650   1.450   .     D
Fe1651 N1675   2.096   .     S
Fe1651 N2280   2.096   1_545 S
Fe1651 N1670   2.096   .     S
Fe1652 N1685   2.096   .     S
Fe1652 N1655   2.096   .     S
Fe1652 N2260   2.096   1_545 S
C1653  N1655   1.360   .     D
C1653  H1656   0.950   .     S
C1653  C2493   1.360   .     S
C1654  H1657   0.950   .     S
C1654  C2494   1.390   .     S
C1654  C1659   1.390   .     D
N1655  N2475   1.360   .     S
C1658  N1660   1.360   .     D
C1658  H1661   0.950   .     S
C1658  C2495   1.360   .     S
C1659  H1662   0.950   .     S
C1659  C2496   1.390   .     S
N1660  Fe1852  2.096   .     S
N1660  N2480   1.360   .     S
C1663  N1665   1.360   .     D
C1663  H1666   0.950   .     S
C1663  C1697   1.360   .     S
C1664  H1667   0.950   .     S
C1664  C1698   1.390   .     S
C1664  C1669   1.390   .     D
N1665  Fe1701  2.096   .     S
N1665  N1690   1.360   .     S
C1668  N1670   1.360   .     D
C1668  H1671   0.950   .     S
C1668  C1699   1.360   .     S
C1669  H1672   0.950   .     S
C1669  C1700   1.390   .     S
N1670  N1685   1.360   .     S
C1673  N1675   1.360   .     D
C1673  H1676   0.950   .     S
C1673  C1693   1.360   .     S
C1674  H1677   0.950   .     S
C1674  C1694   1.390   .     S
C1674  C1679   1.390   .     D
C1678  N1680   1.360   .     D
C1678  H1681   0.950   .     S
C1678  C1695   1.360   .     S
C1679  H1682   0.950   .     S
C1679  C1696   1.390   .     S
N1680  Fe1851  2.096   .     S
C1683  N1685   1.360   .     D
C1683  H1686   0.950   .     S
C1683  C1699   1.360   .     S
C1684  H1687   0.950   .     S
C1684  C1700   1.390   .     S
C1684  C1689   1.390   .     D
C1688  N1690   1.360   .     D
C1688  H1691   0.950   .     S
C1688  C1697   1.360   .     S
C1689  H1692   0.950   .     S
C1689  C1698   1.390   .     S
N1690  Fe1702  2.096   .     S
C1693  C1694   1.450   .     D
C1695  C1696   1.450   .     D
C1697  C1698   1.450   .     D
C1699  C1700   1.450   .     D
Fe1701 N1725   2.096   .     S
Fe1701 N2330   2.096   1_545 S
Fe1701 N1720   2.096   .     S
Fe1702 N1735   2.096   .     S
Fe1702 N1705   2.096   .     S
Fe1702 N2310   2.096   1_545 S
C1703  N1705   1.360   .     D
C1703  H1706   0.950   .     S
C1703  C2543   1.360   .     S
C1704  H1707   0.950   .     S
C1704  C2544   1.390   .     S
C1704  C1709   1.390   .     D
N1705  N2525   1.360   .     S
C1708  N1710   1.360   .     D
C1708  H1711   0.950   .     S
C1708  C2545   1.360   .     S
C1709  H1712   0.950   .     S
C1709  C2546   1.390   .     S
N1710  Fe1902  2.096   .     S
N1710  N2530   1.360   .     S
C1713  N1715   1.360   .     D
C1713  H1716   0.950   .     S
C1713  C1747   1.360   .     S
C1714  H1717   0.950   .     S
C1714  C1748   1.390   .     S
C1714  C1719   1.390   .     D
N1715  Fe1751  2.096   .     S
N1715  N1740   1.360   .     S
C1718  N1720   1.360   .     D
C1718  H1721   0.950   .     S
C1718  C1749   1.360   .     S
C1719  H1722   0.950   .     S
C1719  C1750   1.390   .     S
N1720  N1735   1.360   .     S
C1723  N1725   1.360   .     D
C1723  H1726   0.950   .     S
C1723  C1743   1.360   .     S
C1724  H1727   0.950   .     S
C1724  C1744   1.390   .     S
C1724  C1729   1.390   .     D
C1728  N1730   1.360   .     D
C1728  H1731   0.950   .     S
C1728  C1745   1.360   .     S
C1729  H1732   0.950   .     S
C1729  C1746   1.390   .     S
N1730  Fe1901  2.096   .     S
C1733  N1735   1.360   .     D
C1733  H1736   0.950   .     S
C1733  C1749   1.360   .     S
C1734  H1737   0.950   .     S
C1734  C1750   1.390   .     S
C1734  C1739   1.390   .     D
C1738  N1740   1.360   .     D
C1738  H1741   0.950   .     S
C1738  C1747   1.360   .     S
C1739  H1742   0.950   .     S
C1739  C1748   1.390   .     S
N1740  Fe1752  2.096   .     S
C1743  C1744   1.450   .     D
C1745  C1746   1.450   .     D
C1747  C1748   1.450   .     D
C1749  C1750   1.450   .     D
Fe1751 N1775   2.096   .     S
Fe1751 N2380   2.096   1_545 S
Fe1751 N1770   2.096   .     S
Fe1752 N1785   2.096   .     S
Fe1752 N1755   2.096   .     S
Fe1752 N2360   2.096   1_545 S
C1753  N1755   1.360   .     D
C1753  H1756   0.950   .     S
C1753  C2593   1.360   .     S
C1754  H1757   0.950   .     S
C1754  C2594   1.390   .     S
C1754  C1759   1.390   .     D
N1755  N2575   1.360   .     S
C1758  N1760   1.360   .     D
C1758  H1761   0.950   .     S
C1758  C2595   1.360   .     S
C1759  H1762   0.950   .     S
C1759  C2596   1.390   .     S
N1760  Fe1952  2.096   .     S
N1760  N2580   1.360   .     S
C1763  N1765   1.360   .     D
C1763  H1766   0.950   .     S
C1763  C1797   1.360   .     S
C1764  H1767   0.950   .     S
C1764  C1798   1.390   .     S
C1764  C1769   1.390   .     D
N1765  Fe1601  2.096   1_655 S
N1765  N1790   1.360   .     S
C1768  N1770   1.360   .     D
C1768  H1771   0.950   .     S
C1768  C1799   1.360   .     S
C1769  H1772   0.950   .     S
C1769  C1800   1.390   .     S
N1770  N1785   1.360   .     S
C1773  N1775   1.360   .     D
C1773  H1776   0.950   .     S
C1773  C1793   1.360   .     S
C1774  H1777   0.950   .     S
C1774  C1794   1.390   .     S
C1774  C1779   1.390   .     D
C1778  N1780   1.360   .     D
C1778  H1781   0.950   .     S
C1778  C1795   1.360   .     S
C1779  H1782   0.950   .     S
C1779  C1796   1.390   .     S
N1780  Fe1951  2.096   .     S
C1783  N1785   1.360   .     D
C1783  H1786   0.950   .     S
C1783  C1799   1.360   .     S
C1784  H1787   0.950   .     S
C1784  C1800   1.390   .     S
C1784  C1789   1.390   .     D
C1788  N1790   1.360   .     D
C1788  H1791   0.950   .     S
C1788  C1797   1.360   .     S
C1789  H1792   0.950   .     S
C1789  C1798   1.390   .     S
N1790  Fe1602  2.096   1_655 S
C1793  C1794   1.450   .     D
C1795  C1796   1.450   .     D
C1797  C1798   1.450   .     D
C1799  C1800   1.450   .     D
Fe1801 N1825   2.096   .     S
Fe1801 N1820   2.096   .     S
Fe1801 N1965   2.096   1_455 S
Fe1802 N1990   2.096   1_455 S
Fe1802 N1835   2.096   .     S
Fe1802 N1805   2.096   .     S
C1803  N1805   1.360   .     D
C1803  H1806   0.950   .     S
C1803  C2643   1.360   .     S
C1804  H1807   0.950   .     S
C1804  C2644   1.390   .     S
C1804  C1809   1.390   .     D
N1805  N2625   1.360   .     S
C1808  N1810   1.360   .     D
C1808  H1811   0.950   .     S
C1808  C2645   1.360   .     S
C1809  H1812   0.950   .     S
C1809  C2646   1.390   .     S
N1810  Fe2002  2.096   .     S
N1810  N2630   1.360   .     S
C1813  N1815   1.360   .     D
C1813  H1816   0.950   .     S
C1813  C1847   1.360   .     S
C1814  H1817   0.950   .     S
C1814  C1848   1.390   .     S
C1814  C1819   1.390   .     D
N1815  Fe1851  2.096   .     S
N1815  N1840   1.360   .     S
C1818  N1820   1.360   .     D
C1818  H1821   0.950   .     S
C1818  C1849   1.360   .     S
C1819  H1822   0.950   .     S
C1819  C1850   1.390   .     S
N1820  N1835   1.360   .     S
C1823  N1825   1.360   .     D
C1823  H1826   0.950   .     S
C1823  C1843   1.360   .     S
C1824  H1827   0.950   .     S
C1824  C1844   1.390   .     S
C1824  C1829   1.390   .     D
C1828  N1830   1.360   .     D
C1828  H1831   0.950   .     S
C1828  C1845   1.360   .     S
C1829  H1832   0.950   .     S
C1829  C1846   1.390   .     S
N1830  Fe2001  2.096   .     S
C1833  N1835   1.360   .     D
C1833  H1836   0.950   .     S
C1833  C1849   1.360   .     S
C1834  H1837   0.950   .     S
C1834  C1850   1.390   .     S
C1834  C1839   1.390   .     D
C1838  N1840   1.360   .     D
C1838  H1841   0.950   .     S
C1838  C1847   1.360   .     S
C1839  H1842   0.950   .     S
C1839  C1848   1.390   .     S
N1840  Fe1852  2.096   .     S
C1843  C1844   1.450   .     D
C1845  C1846   1.450   .     D
C1847  C1848   1.450   .     D
C1849  C1850   1.450   .     D
Fe1851 N1875   2.096   .     S
Fe1851 N1870   2.096   .     S
Fe1852 N1885   2.096   .     S
Fe1852 N1855   2.096   .     S
C1853  N1855   1.360   .     D
C1853  H1856   0.950   .     S
C1853  C2693   1.360   .     S
C1854  H1857   0.950   .     S
C1854  C2694   1.390   .     S
C1854  C1859   1.390   .     D
N1855  N2675   1.360   .     S
C1858  N1860   1.360   .     D
C1858  H1861   0.950   .     S
C1858  C2695   1.360   .     S
C1859  H1862   0.950   .     S
C1859  C2696   1.390   .     S
N1860  Fe2052  2.096   .     S
N1860  N2680   1.360   .     S
C1863  N1865   1.360   .     D
C1863  H1866   0.950   .     S
C1863  C1897   1.360   .     S
C1864  H1867   0.950   .     S
C1864  C1898   1.390   .     S
C1864  C1869   1.390   .     D
N1865  Fe1901  2.096   .     S
N1865  N1890   1.360   .     S
C1868  N1870   1.360   .     D
C1868  H1871   0.950   .     S
C1868  C1899   1.360   .     S
C1869  H1872   0.950   .     S
C1869  C1900   1.390   .     S
N1870  N1885   1.360   .     S
C1873  N1875   1.360   .     D
C1873  H1876   0.950   .     S
C1873  C1893   1.360   .     S
C1874  H1877   0.950   .     S
C1874  C1894   1.390   .     S
C1874  C1879   1.390   .     D
C1878  N1880   1.360   .     D
C1878  H1881   0.950   .     S
C1878  C1895   1.360   .     S
C1879  H1882   0.950   .     S
C1879  C1896   1.390   .     S
N1880  Fe2051  2.096   .     S
C1883  N1885   1.360   .     D
C1883  H1886   0.950   .     S
C1883  C1899   1.360   .     S
C1884  H1887   0.950   .     S
C1884  C1900   1.390   .     S
C1884  C1889   1.390   .     D
C1888  N1890   1.360   .     D
C1888  H1891   0.950   .     S
C1888  C1897   1.360   .     S
C1889  H1892   0.950   .     S
C1889  C1898   1.390   .     S
N1890  Fe1902  2.096   .     S
C1893  C1894   1.450   .     D
C1895  C1896   1.450   .     D
C1897  C1898   1.450   .     D
C1899  C1900   1.450   .     D
Fe1901 N1925   2.096   .     S
Fe1901 N1920   2.096   .     S
Fe1902 N1935   2.096   .     S
Fe1902 N1905   2.096   .     S
C1903  N1905   1.360   .     D
C1903  H1906   0.950   .     S
C1903  C2743   1.360   .     S
C1904  H1907   0.950   .     S
C1904  C2744   1.390   .     S
C1904  C1909   1.390   .     D
N1905  N2725   1.360   .     S
C1908  N1910   1.360   .     D
C1908  H1911   0.950   .     S
C1908  C2745   1.360   .     S
C1909  H1912   0.950   .     S
C1909  C2746   1.390   .     S
N1910  Fe2102  2.096   .     S
N1910  N2730   1.360   .     S
C1913  N1915   1.360   .     D
C1913  H1916   0.950   .     S
C1913  C1947   1.360   .     S
C1914  H1917   0.950   .     S
C1914  C1948   1.390   .     S
C1914  C1919   1.390   .     D
N1915  Fe1951  2.096   .     S
N1915  N1940   1.360   .     S
C1918  N1920   1.360   .     D
C1918  H1921   0.950   .     S
C1918  C1949   1.360   .     S
C1919  H1922   0.950   .     S
C1919  C1950   1.390   .     S
N1920  N1935   1.360   .     S
C1923  N1925   1.360   .     D
C1923  H1926   0.950   .     S
C1923  C1943   1.360   .     S
C1924  H1927   0.950   .     S
C1924  C1944   1.390   .     S
C1924  C1929   1.390   .     D
C1928  N1930   1.360   .     D
C1928  H1931   0.950   .     S
C1928  C1945   1.360   .     S
C1929  H1932   0.950   .     S
C1929  C1946   1.390   .     S
N1930  Fe2101  2.096   .     S
C1933  N1935   1.360   .     D
C1933  H1936   0.950   .     S
C1933  C1949   1.360   .     S
C1934  H1937   0.950   .     S
C1934  C1950   1.390   .     S
C1934  C1939   1.390   .     D
C1938  N1940   1.360   .     D
C1938  H1941   0.950   .     S
C1938  C1947   1.360   .     S
C1939  H1942   0.950   .     S
C1939  C1948   1.390   .     S
N1940  Fe1952  2.096   .     S
C1943  C1944   1.450   .     D
C1945  C1946   1.450   .     D
C1947  C1948   1.450   .     D
C1949  C1950   1.450   .     D
Fe1951 N1975   2.096   .     S
Fe1951 N1970   2.096   .     S
Fe1952 N1985   2.096   .     S
Fe1952 N1955   2.096   .     S
C1953  N1955   1.360   .     D
C1953  H1956   0.950   .     S
C1953  C2793   1.360   .     S
C1954  H1957   0.950   .     S
C1954  C2794   1.390   .     S
C1954  C1959   1.390   .     D
N1955  N2775   1.360   .     S
C1958  N1960   1.360   .     D
C1958  H1961   0.950   .     S
C1958  C2795   1.360   .     S
C1959  H1962   0.950   .     S
C1959  C2796   1.390   .     S
N1960  Fe2152  2.096   .     S
N1960  N2780   1.360   .     S
C1963  N1965   1.360   .     D
C1963  H1966   0.950   .     S
C1963  C1997   1.360   .     S
C1964  H1967   0.950   .     S
C1964  C1998   1.390   .     S
C1964  C1969   1.390   .     D
N1965  Fe1801  2.096   1_655 S
N1965  N1990   1.360   .     S
C1968  N1970   1.360   .     D
C1968  H1971   0.950   .     S
C1968  C1999   1.360   .     S
C1969  H1972   0.950   .     S
C1969  C2000   1.390   .     S
N1970  N1985   1.360   .     S
C1973  N1975   1.360   .     D
C1973  H1976   0.950   .     S
C1973  C1993   1.360   .     S
C1974  H1977   0.950   .     S
C1974  C1994   1.390   .     S
C1974  C1979   1.390   .     D
C1978  N1980   1.360   .     D
C1978  H1981   0.950   .     S
C1978  C1995   1.360   .     S
C1979  H1982   0.950   .     S
C1979  C1996   1.390   .     S
N1980  Fe2151  2.096   .     S
C1983  N1985   1.360   .     D
C1983  H1986   0.950   .     S
C1983  C1999   1.360   .     S
C1984  H1987   0.950   .     S
C1984  C2000   1.390   .     S
C1984  C1989   1.390   .     D
C1988  N1990   1.360   .     D
C1988  H1991   0.950   .     S
C1988  C1997   1.360   .     S
C1989  H1992   0.950   .     S
C1989  C1998   1.390   .     S
N1990  Fe1802  2.096   1_655 S
C1993  C1994   1.450   .     D
C1995  C1996   1.450   .     D
C1997  C1998   1.450   .     D
C1999  C2000   1.450   .     D
Fe2001 N2025   2.096   .     S
Fe2001 N2020   2.096   .     S
Fe2001 N2165   2.096   1_455 S
Fe2002 N2190   2.096   1_455 S
Fe2002 N2035   2.096   .     S
Fe2002 N2005   2.096   .     S
C2003  N2005   1.360   .     D
C2003  H2006   0.950   .     S
C2003  C2843   1.360   .     S
C2004  H2007   0.950   .     S
C2004  C2844   1.390   .     S
C2004  C2009   1.390   .     D
N2005  N2825   1.360   .     S
C2008  N2010   1.360   .     D
C2008  H2011   0.950   .     S
C2008  C2845   1.360   .     S
C2009  H2012   0.950   .     S
C2009  C2846   1.390   .     S
N2010  Fe2202  2.096   .     S
N2010  N2830   1.360   .     S
C2013  N2015   1.360   .     D
C2013  H2016   0.950   .     S
C2013  C2047   1.360   .     S
C2014  H2017   0.950   .     S
C2014  C2048   1.390   .     S
C2014  C2019   1.390   .     D
N2015  Fe2051  2.096   .     S
N2015  N2040   1.360   .     S
C2018  N2020   1.360   .     D
C2018  H2021   0.950   .     S
C2018  C2049   1.360   .     S
C2019  H2022   0.950   .     S
C2019  C2050   1.390   .     S
N2020  N2035   1.360   .     S
C2023  N2025   1.360   .     D
C2023  H2026   0.950   .     S
C2023  C2043   1.360   .     S
C2024  H2027   0.950   .     S
C2024  C2044   1.390   .     S
C2024  C2029   1.390   .     D
C2028  N2030   1.360   .     D
C2028  H2031   0.950   .     S
C2028  C2045   1.360   .     S
C2029  H2032   0.950   .     S
C2029  C2046   1.390   .     S
N2030  Fe2201  2.096   .     S
C2033  N2035   1.360   .     D
C2033  H2036   0.950   .     S
C2033  C2049   1.360   .     S
C2034  H2037   0.950   .     S
C2034  C2050   1.390   .     S
C2034  C2039   1.390   .     D
C2038  N2040   1.360   .     D
C2038  H2041   0.950   .     S
C2038  C2047   1.360   .     S
C2039  H2042   0.950   .     S
C2039  C2048   1.390   .     S
N2040  Fe2052  2.096   .     S
C2043  C2044   1.450   .     D
C2045  C2046   1.450   .     D
C2047  C2048   1.450   .     D
C2049  C2050   1.450   .     D
Fe2051 N2075   2.096   .     S
Fe2051 N2070   2.096   .     S
Fe2052 N2085   2.096   .     S
Fe2052 N2055   2.096   .     S
C2053  N2055   1.360   .     D
C2053  H2056   0.950   .     S
C2053  C2893   1.360   .     S
C2054  H2057   0.950   .     S
C2054  C2894   1.390   .     S
C2054  C2059   1.390   .     D
N2055  N2875   1.360   .     S
C2058  N2060   1.360   .     D
C2058  H2061   0.950   .     S
C2058  C2895   1.360   .     S
C2059  H2062   0.950   .     S
C2059  C2896   1.390   .     S
N2060  Fe2252  2.096   .     S
N2060  N2880   1.360   .     S
C2063  N2065   1.360   .     D
C2063  H2066   0.950   .     S
C2063  C2097   1.360   .     S
C2064  H2067   0.950   .     S
C2064  C2098   1.390   .     S
C2064  C2069   1.390   .     D
N2065  Fe2101  2.096   .     S
N2065  N2090   1.360   .     S
C2068  N2070   1.360   .     D
C2068  H2071   0.950   .     S
C2068  C2099   1.360   .     S
C2069  H2072   0.950   .     S
C2069  C2100   1.390   .     S
N2070  N2085   1.360   .     S
C2073  N2075   1.360   .     D
C2073  H2076   0.950   .     S
C2073  C2093   1.360   .     S
C2074  H2077   0.950   .     S
C2074  C2094   1.390   .     S
C2074  C2079   1.390   .     D
C2078  N2080   1.360   .     D
C2078  H2081   0.950   .     S
C2078  C2095   1.360   .     S
C2079  H2082   0.950   .     S
C2079  C2096   1.390   .     S
N2080  Fe2251  2.096   .     S
C2083  N2085   1.360   .     D
C2083  H2086   0.950   .     S
C2083  C2099   1.360   .     S
C2084  H2087   0.950   .     S
C2084  C2100   1.390   .     S
C2084  C2089   1.390   .     D
C2088  N2090   1.360   .     D
C2088  H2091   0.950   .     S
C2088  C2097   1.360   .     S
C2089  H2092   0.950   .     S
C2089  C2098   1.390   .     S
N2090  Fe2102  2.096   .     S
C2093  C2094   1.450   .     D
C2095  C2096   1.450   .     D
C2097  C2098   1.450   .     D
C2099  C2100   1.450   .     D
Fe2101 N2125   2.096   .     S
Fe2101 N2120   2.096   .     S
Fe2102 N2135   2.096   .     S
Fe2102 N2105   2.096   .     S
C2103  N2105   1.360   .     D
C2103  H2106   0.950   .     S
C2103  C2943   1.360   .     S
C2104  H2107   0.950   .     S
C2104  C2944   1.390   .     S
C2104  C2109   1.390   .     D
N2105  N2925   1.360   .     S
C2108  N2110   1.360   .     D
C2108  H2111   0.950   .     S
C2108  C2945   1.360   .     S
C2109  H2112   0.950   .     S
C2109  C2946   1.390   .     S
N2110  Fe2302  2.096   .     S
N2110  N2930   1.360   .     S
C2113  N2115   1.360   .     D
C2113  H2116   0.950   .     S
C2113  C2147   1.360   .     S
C2114  H2117   0.950   .     S
C2114  C2148   1.390   .     S
C2114  C2119   1.390   .     D
N2115  Fe2151  2.096   .     S
N2115  N2140   1.360   .     S
C2118  N2120   1.360   .     D
C2118  H2121   0.950   .     S
C2118  C2149   1.360   .     S
C2119  H2122   0.950   .     S
C2119  C2150   1.390   .     S
N2120  N2135   1.360   .     S
C2123  N2125   1.360   .     D
C2123  H2126   0.950   .     S
C2123  C2143   1.360   .     S
C2124  H2127   0.950   .     S
C2124  C2144   1.390   .     S
C2124  C2129   1.390   .     D
C2128  N2130   1.360   .     D
C2128  H2131   0.950   .     S
C2128  C2145   1.360   .     S
C2129  H2132   0.950   .     S
C2129  C2146   1.390   .     S
N2130  Fe2301  2.096   .     S
C2133  N2135   1.360   .     D
C2133  H2136   0.950   .     S
C2133  C2149   1.360   .     S
C2134  H2137   0.950   .     S
C2134  C2150   1.390   .     S
C2134  C2139   1.390   .     D
C2138  N2140   1.360   .     D
C2138  H2141   0.950   .     S
C2138  C2147   1.360   .     S
C2139  H2142   0.950   .     S
C2139  C2148   1.390   .     S
N2140  Fe2152  2.096   .     S
C2143  C2144   1.450   .     D
C2145  C2146   1.450   .     D
C2147  C2148   1.450   .     D
C2149  C2150   1.450   .     D
Fe2151 N2175   2.096   .     S
Fe2151 N2170   2.096   .     S
Fe2152 N2185   2.096   .     S
Fe2152 N2155   2.096   .     S
C2153  N2155   1.360   .     D
C2153  H2156   0.950   .     S
C2153  C2993   1.360   .     S
C2154  H2157   0.950   .     S
C2154  C2994   1.390   .     S
C2154  C2159   1.390   .     D
N2155  N2975   1.360   .     S
C2158  N2160   1.360   .     D
C2158  H2161   0.950   .     S
C2158  C2995   1.360   .     S
C2159  H2162   0.950   .     S
C2159  C2996   1.390   .     S
N2160  Fe2352  2.096   .     S
N2160  N2980   1.360   .     S
C2163  N2165   1.360   .     D
C2163  H2166   0.950   .     S
C2163  C2197   1.360   .     S
C2164  H2167   0.950   .     S
C2164  C2198   1.390   .     S
C2164  C2169   1.390   .     D
N2165  Fe2001  2.096   1_655 S
N2165  N2190   1.360   .     S
C2168  N2170   1.360   .     D
C2168  H2171   0.950   .     S
C2168  C2199   1.360   .     S
C2169  H2172   0.950   .     S
C2169  C2200   1.390   .     S
N2170  N2185   1.360   .     S
C2173  N2175   1.360   .     D
C2173  H2176   0.950   .     S
C2173  C2193   1.360   .     S
C2174  H2177   0.950   .     S
C2174  C2194   1.390   .     S
C2174  C2179   1.390   .     D
C2178  N2180   1.360   .     D
C2178  H2181   0.950   .     S
C2178  C2195   1.360   .     S
C2179  H2182   0.950   .     S
C2179  C2196   1.390   .     S
N2180  Fe2351  2.096   .     S
C2183  N2185   1.360   .     D
C2183  H2186   0.950   .     S
C2183  C2199   1.360   .     S
C2184  H2187   0.950   .     S
C2184  C2200   1.390   .     S
C2184  C2189   1.390   .     D
C2188  N2190   1.360   .     D
C2188  H2191   0.950   .     S
C2188  C2197   1.360   .     S
C2189  H2192   0.950   .     S
C2189  C2198   1.390   .     S
N2190  Fe2002  2.096   1_655 S
C2193  C2194   1.450   .     D
C2195  C2196   1.450   .     D
C2197  C2198   1.450   .     D
C2199  C2200   1.450   .     D
Fe2201 N2225   2.096   .     S
Fe2201 N2220   2.096   .     S
Fe2201 N2365   2.096   1_455 S
Fe2202 N2390   2.096   1_455 S
Fe2202 N2235   2.096   .     S
Fe2202 N2205   2.096   .     S
C2203  N2205   1.360   .     D
C2203  H2206   0.950   .     S
C2203  C3043   1.360   .     S
C2204  H2207   0.950   .     S
C2204  C3044   1.390   .     S
C2204  C2209   1.390   .     D
N2205  N3025   1.360   .     S
C2208  N2210   1.360   .     D
C2208  H2211   0.950   .     S
C2208  C3045   1.360   .     S
C2209  H2212   0.950   .     S
C2209  C3046   1.390   .     S
N2210  Fe1602  2.096   1_565 S
N2210  N3030   1.360   .     S
C2213  N2215   1.360   .     D
C2213  H2216   0.950   .     S
C2213  C2247   1.360   .     S
C2214  H2217   0.950   .     S
C2214  C2248   1.390   .     S
C2214  C2219   1.390   .     D
N2215  Fe2251  2.096   .     S
N2215  N2240   1.360   .     S
C2218  N2220   1.360   .     D
C2218  H2221   0.950   .     S
C2218  C2249   1.360   .     S
C2219  H2222   0.950   .     S
C2219  C2250   1.390   .     S
N2220  N2235   1.360   .     S
C2223  N2225   1.360   .     D
C2223  H2226   0.950   .     S
C2223  C2243   1.360   .     S
C2224  H2227   0.950   .     S
C2224  C2244   1.390   .     S
C2224  C2229   1.390   .     D
C2228  N2230   1.360   .     D
C2228  H2231   0.950   .     S
C2228  C2245   1.360   .     S
C2229  H2232   0.950   .     S
C2229  C2246   1.390   .     S
N2230  Fe1601  2.096   1_565 S
C2233  N2235   1.360   .     D
C2233  H2236   0.950   .     S
C2233  C2249   1.360   .     S
C2234  H2237   0.950   .     S
C2234  C2250   1.390   .     S
C2234  C2239   1.390   .     D
C2238  N2240   1.360   .     D
C2238  H2241   0.950   .     S
C2238  C2247   1.360   .     S
C2239  H2242   0.950   .     S
C2239  C2248   1.390   .     S
N2240  Fe2252  2.096   .     S
C2243  C2244   1.450   .     D
C2245  C2246   1.450   .     D
C2247  C2248   1.450   .     D
C2249  C2250   1.450   .     D
Fe2251 N2275   2.096   .     S
Fe2251 N2270   2.096   .     S
Fe2252 N2285   2.096   .     S
Fe2252 N2255   2.096   .     S
C2253  N2255   1.360   .     D
C2253  H2256   0.950   .     S
C2253  C3093   1.360   .     S
C2254  H2257   0.950   .     S
C2254  C3094   1.390   .     S
C2254  C2259   1.390   .     D
N2255  N3075   1.360   .     S
C2258  N2260   1.360   .     D
C2258  H2261   0.950   .     S
C2258  C3095   1.360   .     S
C2259  H2262   0.950   .     S
C2259  C3096   1.390   .     S
N2260  Fe1652  2.096   1_565 S
N2260  N3080   1.360   .     S
C2263  N2265   1.360   .     D
C2263  H2266   0.950   .     S
C2263  C2297   1.360   .     S
C2264  H2267   0.950   .     S
C2264  C2298   1.390   .     S
C2264  C2269   1.390   .     D
N2265  Fe2301  2.096   .     S
N2265  N2290   1.360   .     S
C2268  N2270   1.360   .     D
C2268  H2271   0.950   .     S
C2268  C2299   1.360   .     S
C2269  H2272   0.950   .     S
C2269  C2300   1.390   .     S
N2270  N2285   1.360   .     S
C2273  N2275   1.360   .     D
C2273  H2276   0.950   .     S
C2273  C2293   1.360   .     S
C2274  H2277   0.950   .     S
C2274  C2294   1.390   .     S
C2274  C2279   1.390   .     D
C2278  N2280   1.360   .     D
C2278  H2281   0.950   .     S
C2278  C2295   1.360   .     S
C2279  H2282   0.950   .     S
C2279  C2296   1.390   .     S
N2280  Fe1651  2.096   1_565 S
C2283  N2285   1.360   .     D
C2283  H2286   0.950   .     S
C2283  C2299   1.360   .     S
C2284  H2287   0.950   .     S
C2284  C2300   1.390   .     S
C2284  C2289   1.390   .     D
C2288  N2290   1.360   .     D
C2288  H2291   0.950   .     S
C2288  C2297   1.360   .     S
C2289  H2292   0.950   .     S
C2289  C2298   1.390   .     S
N2290  Fe2302  2.096   .     S
C2293  C2294   1.450   .     D
C2295  C2296   1.450   .     D
C2297  C2298   1.450   .     D
C2299  C2300   1.450   .     D
Fe2301 N2325   2.096   .     S
Fe2301 N2320   2.096   .     S
Fe2302 N2335   2.096   .     S
Fe2302 N2305   2.096   .     S
C2303  N2305   1.360   .     D
C2303  H2306   0.950   .     S
C2303  C3143   1.360   .     S
C2304  H2307   0.950   .     S
C2304  C3144   1.390   .     S
C2304  C2309   1.390   .     D
N2305  N3125   1.360   .     S
C2308  N2310   1.360   .     D
C2308  H2311   0.950   .     S
C2308  C3145   1.360   .     S
C2309  H2312   0.950   .     S
C2309  C3146   1.390   .     S
N2310  Fe1702  2.096   1_565 S
N2310  N3130   1.360   .     S
C2313  N2315   1.360   .     D
C2313  H2316   0.950   .     S
C2313  C2347   1.360   .     S
C2314  H2317   0.950   .     S
C2314  C2348   1.390   .     S
C2314  C2319   1.390   .     D
N2315  Fe2351  2.096   .     S
N2315  N2340   1.360   .     S
C2318  N2320   1.360   .     D
C2318  H2321   0.950   .     S
C2318  C2349   1.360   .     S
C2319  H2322   0.950   .     S
C2319  C2350   1.390   .     S
N2320  N2335   1.360   .     S
C2323  N2325   1.360   .     D
C2323  H2326   0.950   .     S
C2323  C2343   1.360   .     S
C2324  H2327   0.950   .     S
C2324  C2344   1.390   .     S
C2324  C2329   1.390   .     D
C2328  N2330   1.360   .     D
C2328  H2331   0.950   .     S
C2328  C2345   1.360   .     S
C2329  H2332   0.950   .     S
C2329  C2346   1.390   .     S
N2330  Fe1701  2.096   1_565 S
C2333  N2335   1.360   .     D
C2333  H2336   0.950   .     S
C2333  C2349   1.360   .     S
C2334  H2337   0.950   .     S
C2334  C2350   1.390   .     S
C2334  C2339   1.390   .     D
C2338  N2340   1.360   .     D
C2338  H2341   0.950   .     S
C2338  C2347   1.360   .     S
C2339  H2342   0.950   .     S
C2339  C2348   1.390   .     S
N2340  Fe2352  2.096   .     S
C2343  C2344   1.450   .     D
C2345  C2346   1.450   .     D
C2347  C2348   1.450   .     D
C2349  C2350   1.450   .     D
Fe2351 N2375   2.096   .     S
Fe2351 N2370   2.096   .     S
Fe2352 N2385   2.096   .     S
Fe2352 N2355   2.096   .     S
C2353  N2355   1.360   .     D
C2353  H2356   0.950   .     S
C2353  C3193   1.360   .     S
C2354  H2357   0.950   .     S
C2354  C3194   1.390   .     S
C2354  C2359   1.390   .     D
N2355  N3175   1.360   .     S
C2358  N2360   1.360   .     D
C2358  H2361   0.950   .     S
C2358  C3195   1.360   .     S
C2359  H2362   0.950   .     S
C2359  C3196   1.390   .     S
N2360  Fe1752  2.096   1_565 S
N2360  N3180   1.360   .     S
C2363  N2365   1.360   .     D
C2363  H2366   0.950   .     S
C2363  C2397   1.360   .     S
C2364  H2367   0.950   .     S
C2364  C2398   1.390   .     S
C2364  C2369   1.390   .     D
N2365  Fe2201  2.096   1_655 S
N2365  N2390   1.360   .     S
C2368  N2370   1.360   .     D
C2368  H2371   0.950   .     S
C2368  C2399   1.360   .     S
C2369  H2372   0.950   .     S
C2369  C2400   1.390   .     S
N2370  N2385   1.360   .     S
C2373  N2375   1.360   .     D
C2373  H2376   0.950   .     S
C2373  C2393   1.360   .     S
C2374  H2377   0.950   .     S
C2374  C2394   1.390   .     S
C2374  C2379   1.390   .     D
C2378  N2380   1.360   .     D
C2378  H2381   0.950   .     S
C2378  C2395   1.360   .     S
C2379  H2382   0.950   .     S
C2379  C2396   1.390   .     S
N2380  Fe1751  2.096   1_565 S
C2383  N2385   1.360   .     D
C2383  H2386   0.950   .     S
C2383  C2399   1.360   .     S
C2384  H2387   0.950   .     S
C2384  C2400   1.390   .     S
C2384  C2389   1.390   .     D
C2388  N2390   1.360   .     D
C2388  H2391   0.950   .     S
C2388  C2397   1.360   .     S
C2389  H2392   0.950   .     S
C2389  C2398   1.390   .     S
N2390  Fe2202  2.096   1_655 S
C2393  C2394   1.450   .     D
C2395  C2396   1.450   .     D
C2397  C2398   1.450   .     D
C2399  C2400   1.450   .     D
Fe2401 N2425   2.096   .     S
Fe2401 N3030   2.096   1_545 S
Fe2401 N2420   2.096   .     S
Fe2401 N2565   2.096   1_455 S
Fe2402 N2590   2.096   1_455 S
Fe2402 N2435   2.096   .     S
Fe2402 N2405   2.096   .     S
Fe2402 N3010   2.096   1_545 S
C2403  N2405   1.360   .     D
C2403  H2406   0.950   .     S
C2403  C43     1.360   1_556 S
C2404  H2407   0.950   .     S
C2404  C44     1.390   1_556 S
C2404  C2409   1.390   .     D
N2405  N25     1.360   1_556 S
C2408  N2410   1.360   .     D
C2408  H2411   0.950   .     S
C2408  C45     1.360   1_556 S
C2409  H2412   0.950   .     S
C2409  C46     1.390   1_556 S
N2410  Fe2602  2.096   .     S
N2410  N30     1.360   1_556 S
C2413  N2415   1.360   .     D
C2413  H2416   0.950   .     S
C2413  C2447   1.360   .     S
C2414  H2417   0.950   .     S
C2414  C2448   1.390   .     S
C2414  C2419   1.390   .     D
N2415  Fe2451  2.096   .     S
N2415  N2440   1.360   .     S
C2418  N2420   1.360   .     D
C2418  H2421   0.950   .     S
C2418  C2449   1.360   .     S
C2419  H2422   0.950   .     S
C2419  C2450   1.390   .     S
N2420  N2435   1.360   .     S
C2423  N2425   1.360   .     D
C2423  H2426   0.950   .     S
C2423  C2443   1.360   .     S
C2424  H2427   0.950   .     S
C2424  C2444   1.390   .     S
C2424  C2429   1.390   .     D
C2428  N2430   1.360   .     D
C2428  H2431   0.950   .     S
C2428  C2445   1.360   .     S
C2429  H2432   0.950   .     S
C2429  C2446   1.390   .     S
N2430  Fe2601  2.096   .     S
C2433  N2435   1.360   .     D
C2433  H2436   0.950   .     S
C2433  C2449   1.360   .     S
C2434  H2437   0.950   .     S
C2434  C2450   1.390   .     S
C2434  C2439   1.390   .     D
C2438  N2440   1.360   .     D
C2438  H2441   0.950   .     S
C2438  C2447   1.360   .     S
C2439  H2442   0.950   .     S
C2439  C2448   1.390   .     S
N2440  Fe2452  2.096   .     S
C2443  C2444   1.450   .     D
C2445  C2446   1.450   .     D
C2447  C2448   1.450   .     D
C2449  C2450   1.450   .     D
Fe2451 N2475   2.096   .     S
Fe2451 N3080   2.096   1_545 S
Fe2451 N2470   2.096   .     S
Fe2452 N2485   2.096   .     S
Fe2452 N2455   2.096   .     S
Fe2452 N3060   2.096   1_545 S
C2453  N2455   1.360   .     D
C2453  H2456   0.950   .     S
C2453  C93     1.360   1_556 S
C2454  H2457   0.950   .     S
C2454  C94     1.390   1_556 S
C2454  C2459   1.390   .     D
N2455  N75     1.360   1_556 S
C2458  N2460   1.360   .     D
C2458  H2461   0.950   .     S
C2458  C95     1.360   1_556 S
C2459  H2462   0.950   .     S
C2459  C96     1.390   1_556 S
N2460  Fe2652  2.096   .     S
N2460  N80     1.360   1_556 S
C2463  N2465   1.360   .     D
C2463  H2466   0.950   .     S
C2463  C2497   1.360   .     S
C2464  H2467   0.950   .     S
C2464  C2498   1.390   .     S
C2464  C2469   1.390   .     D
N2465  Fe2501  2.096   .     S
N2465  N2490   1.360   .     S
C2468  N2470   1.360   .     D
C2468  H2471   0.950   .     S
C2468  C2499   1.360   .     S
C2469  H2472   0.950   .     S
C2469  C2500   1.390   .     S
N2470  N2485   1.360   .     S
C2473  N2475   1.360   .     D
C2473  H2476   0.950   .     S
C2473  C2493   1.360   .     S
C2474  H2477   0.950   .     S
C2474  C2494   1.390   .     S
C2474  C2479   1.390   .     D
C2478  N2480   1.360   .     D
C2478  H2481   0.950   .     S
C2478  C2495   1.360   .     S
C2479  H2482   0.950   .     S
C2479  C2496   1.390   .     S
N2480  Fe2651  2.096   .     S
C2483  N2485   1.360   .     D
C2483  H2486   0.950   .     S
C2483  C2499   1.360   .     S
C2484  H2487   0.950   .     S
C2484  C2500   1.390   .     S
C2484  C2489   1.390   .     D
C2488  N2490   1.360   .     D
C2488  H2491   0.950   .     S
C2488  C2497   1.360   .     S
C2489  H2492   0.950   .     S
C2489  C2498   1.390   .     S
N2490  Fe2502  2.096   .     S
C2493  C2494   1.450   .     D
C2495  C2496   1.450   .     D
C2497  C2498   1.450   .     D
C2499  C2500   1.450   .     D
Fe2501 N2525   2.096   .     S
Fe2501 N3130   2.096   1_545 S
Fe2501 N2520   2.096   .     S
Fe2502 N2535   2.096   .     S
Fe2502 N2505   2.096   .     S
Fe2502 N3110   2.096   1_545 S
C2503  N2505   1.360   .     D
C2503  H2506   0.950   .     S
C2503  C143    1.360   1_556 S
C2504  H2507   0.950   .     S
C2504  C144    1.390   1_556 S
C2504  C2509   1.390   .     D
N2505  N125    1.360   1_556 S
C2508  N2510   1.360   .     D
C2508  H2511   0.950   .     S
C2508  C145    1.360   1_556 S
C2509  H2512   0.950   .     S
C2509  C146    1.390   1_556 S
N2510  Fe2702  2.096   .     S
N2510  N130    1.360   1_556 S
C2513  N2515   1.360   .     D
C2513  H2516   0.950   .     S
C2513  C2547   1.360   .     S
C2514  H2517   0.950   .     S
C2514  C2548   1.390   .     S
C2514  C2519   1.390   .     D
N2515  Fe2551  2.096   .     S
N2515  N2540   1.360   .     S
C2518  N2520   1.360   .     D
C2518  H2521   0.950   .     S
C2518  C2549   1.360   .     S
C2519  H2522   0.950   .     S
C2519  C2550   1.390   .     S
N2520  N2535   1.360   .     S
C2523  N2525   1.360   .     D
C2523  H2526   0.950   .     S
C2523  C2543   1.360   .     S
C2524  H2527   0.950   .     S
C2524  C2544   1.390   .     S
C2524  C2529   1.390   .     D
C2528  N2530   1.360   .     D
C2528  H2531   0.950   .     S
C2528  C2545   1.360   .     S
C2529  H2532   0.950   .     S
C2529  C2546   1.390   .     S
N2530  Fe2701  2.096   .     S
C2533  N2535   1.360   .     D
C2533  H2536   0.950   .     S
C2533  C2549   1.360   .     S
C2534  H2537   0.950   .     S
C2534  C2550   1.390   .     S
C2534  C2539   1.390   .     D
C2538  N2540   1.360   .     D
C2538  H2541   0.950   .     S
C2538  C2547   1.360   .     S
C2539  H2542   0.950   .     S
C2539  C2548   1.390   .     S
N2540  Fe2552  2.096   .     S
C2543  C2544   1.450   .     D
C2545  C2546   1.450   .     D
C2547  C2548   1.450   .     D
C2549  C2550   1.450   .     D
Fe2551 N2575   2.096   .     S
Fe2551 N3180   2.096   1_545 S
Fe2551 N2570   2.096   .     S
Fe2552 N2585   2.096   .     S
Fe2552 N2555   2.096   .     S
Fe2552 N3160   2.096   1_545 S
C2553  N2555   1.360   .     D
C2553  H2556   0.950   .     S
C2553  C193    1.360   1_556 S
C2554  H2557   0.950   .     S
C2554  C194    1.390   1_556 S
C2554  C2559   1.390   .     D
N2555  N175    1.360   1_556 S
C2558  N2560   1.360   .     D
C2558  H2561   0.950   .     S
C2558  C195    1.360   1_556 S
C2559  H2562   0.950   .     S
C2559  C196    1.390   1_556 S
N2560  Fe2752  2.096   .     S
N2560  N180    1.360   1_556 S
C2563  N2565   1.360   .     D
C2563  H2566   0.950   .     S
C2563  C2597   1.360   .     S
C2564  H2567   0.950   .     S
C2564  C2598   1.390   .     S
C2564  C2569   1.390   .     D
N2565  Fe2401  2.096   1_655 S
N2565  N2590   1.360   .     S
C2568  N2570   1.360   .     D
C2568  H2571   0.950   .     S
C2568  C2599   1.360   .     S
C2569  H2572   0.950   .     S
C2569  C2600   1.390   .     S
N2570  N2585   1.360   .     S
C2573  N2575   1.360   .     D
C2573  H2576   0.950   .     S
C2573  C2593   1.360   .     S
C2574  H2577   0.950   .     S
C2574  C2594   1.390   .     S
C2574  C2579   1.390   .     D
C2578  N2580   1.360   .     D
C2578  H2581   0.950   .     S
C2578  C2595   1.360   .     S
C2579  H2582   0.950   .     S
C2579  C2596   1.390   .     S
N2580  Fe2751  2.096   .     S
C2583  N2585   1.360   .     D
C2583  H2586   0.950   .     S
C2583  C2599   1.360   .     S
C2584  H2587   0.950   .     S
C2584  C2600   1.390   .     S
C2584  C2589   1.390   .     D
C2588  N2590   1.360   .     D
C2588  H2591   0.950   .     S
C2588  C2597   1.360   .     S
C2589  H2592   0.950   .     S
C2589  C2598   1.390   .     S
N2590  Fe2402  2.096   1_655 S
C2593  C2594   1.450   .     D
C2595  C2596   1.450   .     D
C2597  C2598   1.450   .     D
C2599  C2600   1.450   .     D
Fe2601 N2625   2.096   .     S
Fe2601 N2620   2.096   .     S
Fe2601 N2765   2.096   1_455 S
Fe2602 N2790   2.096   1_455 S
Fe2602 N2635   2.096   .     S
Fe2602 N2605   2.096   .     S
C2603  N2605   1.360   .     D
C2603  H2606   0.950   .     S
C2603  C243    1.360   1_556 S
C2604  H2607   0.950   .     S
C2604  C244    1.390   1_556 S
C2604  C2609   1.390   .     D
N2605  N225    1.360   1_556 S
C2608  N2610   1.360   .     D
C2608  H2611   0.950   .     S
C2608  C245    1.360   1_556 S
C2609  H2612   0.950   .     S
C2609  C246    1.390   1_556 S
N2610  Fe2802  2.096   .     S
N2610  N230    1.360   1_556 S
C2613  N2615   1.360   .     D
C2613  H2616   0.950   .     S
C2613  C2647   1.360   .     S
C2614  H2617   0.950   .     S
C2614  C2648   1.390   .     S
C2614  C2619   1.390   .     D
N2615  Fe2651  2.096   .     S
N2615  N2640   1.360   .     S
C2618  N2620   1.360   .     D
C2618  H2621   0.950   .     S
C2618  C2649   1.360   .     S
C2619  H2622   0.950   .     S
C2619  C2650   1.390   .     S
N2620  N2635   1.360   .     S
C2623  N2625   1.360   .     D
C2623  H2626   0.950   .     S
C2623  C2643   1.360   .     S
C2624  H2627   0.950   .     S
C2624  C2644   1.390   .     S
C2624  C2629   1.390   .     D
C2628  N2630   1.360   .     D
C2628  H2631   0.950   .     S
C2628  C2645   1.360   .     S
C2629  H2632   0.950   .     S
C2629  C2646   1.390   .     S
N2630  Fe2801  2.096   .     S
C2633  N2635   1.360   .     D
C2633  H2636   0.950   .     S
C2633  C2649   1.360   .     S
C2634  H2637   0.950   .     S
C2634  C2650   1.390   .     S
C2634  C2639   1.390   .     D
C2638  N2640   1.360   .     D
C2638  H2641   0.950   .     S
C2638  C2647   1.360   .     S
C2639  H2642   0.950   .     S
C2639  C2648   1.390   .     S
N2640  Fe2652  2.096   .     S
C2643  C2644   1.450   .     D
C2645  C2646   1.450   .     D
C2647  C2648   1.450   .     D
C2649  C2650   1.450   .     D
Fe2651 N2675   2.096   .     S
Fe2651 N2670   2.096   .     S
Fe2652 N2685   2.096   .     S
Fe2652 N2655   2.096   .     S
C2653  N2655   1.360   .     D
C2653  H2656   0.950   .     S
C2653  C293    1.360   1_556 S
C2654  H2657   0.950   .     S
C2654  C294    1.390   1_556 S
C2654  C2659   1.390   .     D
N2655  N275    1.360   1_556 S
C2658  N2660   1.360   .     D
C2658  H2661   0.950   .     S
C2658  C295    1.360   1_556 S
C2659  H2662   0.950   .     S
C2659  C296    1.390   1_556 S
N2660  Fe2852  2.096   .     S
N2660  N280    1.360   1_556 S
C2663  N2665   1.360   .     D
C2663  H2666   0.950   .     S
C2663  C2697   1.360   .     S
C2664  H2667   0.950   .     S
C2664  C2698   1.390   .     S
C2664  C2669   1.390   .     D
N2665  Fe2701  2.096   .     S
N2665  N2690   1.360   .     S
C2668  N2670   1.360   .     D
C2668  H2671   0.950   .     S
C2668  C2699   1.360   .     S
C2669  H2672   0.950   .     S
C2669  C2700   1.390   .     S
N2670  N2685   1.360   .     S
C2673  N2675   1.360   .     D
C2673  H2676   0.950   .     S
C2673  C2693   1.360   .     S
C2674  H2677   0.950   .     S
C2674  C2694   1.390   .     S
C2674  C2679   1.390   .     D
C2678  N2680   1.360   .     D
C2678  H2681   0.950   .     S
C2678  C2695   1.360   .     S
C2679  H2682   0.950   .     S
C2679  C2696   1.390   .     S
N2680  Fe2851  2.096   .     S
C2683  N2685   1.360   .     D
C2683  H2686   0.950   .     S
C2683  C2699   1.360   .     S
C2684  H2687   0.950   .     S
C2684  C2700   1.390   .     S
C2684  C2689   1.390   .     D
C2688  N2690   1.360   .     D
C2688  H2691   0.950   .     S
C2688  C2697   1.360   .     S
C2689  H2692   0.950   .     S
C2689  C2698   1.390   .     S
N2690  Fe2702  2.096   .     S
C2693  C2694   1.450   .     D
C2695  C2696   1.450   .     D
C2697  C2698   1.450   .     D
C2699  C2700   1.450   .     D
Fe2701 N2725   2.096   .     S
Fe2701 N2720   2.096   .     S
Fe2702 N2735   2.096   .     S
Fe2702 N2705   2.096   .     S
C2703  N2705   1.360   .     D
C2703  H2706   0.950   .     S
C2703  C343    1.360   1_556 S
C2704  H2707   0.950   .     S
C2704  C344    1.390   1_556 S
C2704  C2709   1.390   .     D
N2705  N325    1.360   1_556 S
C2708  N2710   1.360   .     D
C2708  H2711   0.950   .     S
C2708  C345    1.360   1_556 S
C2709  H2712   0.950   .     S
C2709  C346    1.390   1_556 S
N2710  Fe2902  2.096   .     S
N2710  N330    1.360   1_556 S
C2713  N2715   1.360   .     D
C2713  H2716   0.950   .     S
C2713  C2747   1.360   .     S
C2714  H2717   0.950   .     S
C2714  C2748   1.390   .     S
C2714  C2719   1.390   .     D
N2715  Fe2751  2.096   .     S
N2715  N2740   1.360   .     S
C2718  N2720   1.360   .     D
C2718  H2721   0.950   .     S
C2718  C2749   1.360   .     S
C2719  H2722   0.950   .     S
C2719  C2750   1.390   .     S
N2720  N2735   1.360   .     S
C2723  N2725   1.360   .     D
C2723  H2726   0.950   .     S
C2723  C2743   1.360   .     S
C2724  H2727   0.950   .     S
C2724  C2744   1.390   .     S
C2724  C2729   1.390   .     D
C2728  N2730   1.360   .     D
C2728  H2731   0.950   .     S
C2728  C2745   1.360   .     S
C2729  H2732   0.950   .     S
C2729  C2746   1.390   .     S
N2730  Fe2901  2.096   .     S
C2733  N2735   1.360   .     D
C2733  H2736   0.950   .     S
C2733  C2749   1.360   .     S
C2734  H2737   0.950   .     S
C2734  C2750   1.390   .     S
C2734  C2739   1.390   .     D
C2738  N2740   1.360   .     D
C2738  H2741   0.950   .     S
C2738  C2747   1.360   .     S
C2739  H2742   0.950   .     S
C2739  C2748   1.390   .     S
N2740  Fe2752  2.096   .     S
C2743  C2744   1.450   .     D
C2745  C2746   1.450   .     D
C2747  C2748   1.450   .     D
C2749  C2750   1.450   .     D
Fe2751 N2775   2.096   .     S
Fe2751 N2770   2.096   .     S
Fe2752 N2785   2.096   .     S
Fe2752 N2755   2.096   .     S
C2753  N2755   1.360   .     D
C2753  H2756   0.950   .     S
C2753  C393    1.360   1_556 S
C2754  H2757   0.950   .     S
C2754  C394    1.390   1_556 S
C2754  C2759   1.390   .     D
N2755  N375    1.360   1_556 S
C2758  N2760   1.360   .     D
C2758  H2761   0.950   .     S
C2758  C395    1.360   1_556 S
C2759  H2762   0.950   .     S
C2759  C396    1.390   1_556 S
N2760  Fe2952  2.096   .     S
N2760  N380    1.360   1_556 S
C2763  N2765   1.360   .     D
C2763  H2766   0.950   .     S
C2763  C2797   1.360   .     S
C2764  H2767   0.950   .     S
C2764  C2798   1.390   .     S
C2764  C2769   1.390   .     D
N2765  Fe2601  2.096   1_655 S
N2765  N2790   1.360   .     S
C2768  N2770   1.360   .     D
C2768  H2771   0.950   .     S
C2768  C2799   1.360   .     S
C2769  H2772   0.950   .     S
C2769  C2800   1.390   .     S
N2770  N2785   1.360   .     S
C2773  N2775   1.360   .     D
C2773  H2776   0.950   .     S
C2773  C2793   1.360   .     S
C2774  H2777   0.950   .     S
C2774  C2794   1.390   .     S
C2774  C2779   1.390   .     D
C2778  N2780   1.360   .     D
C2778  H2781   0.950   .     S
C2778  C2795   1.360   .     S
C2779  H2782   0.950   .     S
C2779  C2796   1.390   .     S
N2780  Fe2951  2.096   .     S
C2783  N2785   1.360   .     D
C2783  H2786   0.950   .     S
C2783  C2799   1.360   .     S
C2784  H2787   0.950   .     S
C2784  C2800   1.390   .     S
C2784  C2789   1.390   .     D
C2788  N2790   1.360   .     D
C2788  H2791   0.950   .     S
C2788  C2797   1.360   .     S
C2789  H2792   0.950   .     S
C2789  C2798   1.390   .     S
N2790  Fe2602  2.096   1_655 S
C2793  C2794   1.450   .     D
C2795  C2796   1.450   .     D
C2797  C2798   1.450   .     D
C2799  C2800   1.450   .     D
Fe2801 N2825   2.096   .     S
Fe2801 N2820   2.096   .     S
Fe2801 N2965   2.096   1_455 S
Fe2802 N2990   2.096   1_455 S
Fe2802 N2835   2.096   .     S
Fe2802 N2805   2.096   .     S
C2803  N2805   1.360   .     D
C2803  H2806   0.950   .     S
C2803  C443    1.360   1_556 S
C2804  H2807   0.950   .     S
C2804  C444    1.390   1_556 S
C2804  C2809   1.390   .     D
N2805  N425    1.360   1_556 S
C2808  N2810   1.360   .     D
C2808  H2811   0.950   .     S
C2808  C445    1.360   1_556 S
C2809  H2812   0.950   .     S
C2809  C446    1.390   1_556 S
N2810  Fe3002  2.096   .     S
N2810  N430    1.360   1_556 S
C2813  N2815   1.360   .     D
C2813  H2816   0.950   .     S
C2813  C2847   1.360   .     S
C2814  H2817   0.950   .     S
C2814  C2848   1.390   .     S
C2814  C2819   1.390   .     D
N2815  Fe2851  2.096   .     S
N2815  N2840   1.360   .     S
C2818  N2820   1.360   .     D
C2818  H2821   0.950   .     S
C2818  C2849   1.360   .     S
C2819  H2822   0.950   .     S
C2819  C2850   1.390   .     S
N2820  N2835   1.360   .     S
C2823  N2825   1.360   .     D
C2823  H2826   0.950   .     S
C2823  C2843   1.360   .     S
C2824  H2827   0.950   .     S
C2824  C2844   1.390   .     S
C2824  C2829   1.390   .     D
C2828  N2830   1.360   .     D
C2828  H2831   0.950   .     S
C2828  C2845   1.360   .     S
C2829  H2832   0.950   .     S
C2829  C2846   1.390   .     S
N2830  Fe3001  2.096   .     S
C2833  N2835   1.360   .     D
C2833  H2836   0.950   .     S
C2833  C2849   1.360   .     S
C2834  H2837   0.950   .     S
C2834  C2850   1.390   .     S
C2834  C2839   1.390   .     D
C2838  N2840   1.360   .     D
C2838  H2841   0.950   .     S
C2838  C2847   1.360   .     S
C2839  H2842   0.950   .     S
C2839  C2848   1.390   .     S
N2840  Fe2852  2.096   .     S
C2843  C2844   1.450   .     D
C2845  C2846   1.450   .     D
C2847  C2848   1.450   .     D
C2849  C2850   1.450   .     D
Fe2851 N2875   2.096   .     S
Fe2851 N2870   2.096   .     S
Fe2852 N2885   2.096   .     S
Fe2852 N2855   2.096   .     S
C2853  N2855   1.360   .     D
C2853  H2856   0.950   .     S
C2853  C493    1.360   1_556 S
C2854  H2857   0.950   .     S
C2854  C494    1.390   1_556 S
C2854  C2859   1.390   .     D
N2855  N475    1.360   1_556 S
C2858  N2860   1.360   .     D
C2858  H2861   0.950   .     S
C2858  C495    1.360   1_556 S
C2859  H2862   0.950   .     S
C2859  C496    1.390   1_556 S
N2860  Fe3052  2.096   .     S
N2860  N480    1.360   1_556 S
C2863  N2865   1.360   .     D
C2863  H2866   0.950   .     S
C2863  C2897   1.360   .     S
C2864  H2867   0.950   .     S
C2864  C2898   1.390   .     S
C2864  C2869   1.390   .     D
N2865  Fe2901  2.096   .     S
N2865  N2890   1.360   .     S
C2868  N2870   1.360   .     D
C2868  H2871   0.950   .     S
C2868  C2899   1.360   .     S
C2869  H2872   0.950   .     S
C2869  C2900   1.390   .     S
N2870  N2885   1.360   .     S
C2873  N2875   1.360   .     D
C2873  H2876   0.950   .     S
C2873  C2893   1.360   .     S
C2874  H2877   0.950   .     S
C2874  C2894   1.390   .     S
C2874  C2879   1.390   .     D
C2878  N2880   1.360   .     D
C2878  H2881   0.950   .     S
C2878  C2895   1.360   .     S
C2879  H2882   0.950   .     S
C2879  C2896   1.390   .     S
N2880  Fe3051  2.096   .     S
C2883  N2885   1.360   .     D
C2883  H2886   0.950   .     S
C2883  C2899   1.360   .     S
C2884  H2887   0.950   .     S
C2884  C2900   1.390   .     S
C2884  C2889   1.390   .     D
C2888  N2890   1.360   .     D
C2888  H2891   0.950   .     S
C2888  C2897   1.360   .     S
C2889  H2892   0.950   .     S
C2889  C2898   1.390   .     S
N2890  Fe2902  2.096   .     S
C2893  C2894   1.450   .     D
C2895  C2896   1.450   .     D
C2897  C2898   1.450   .     D
C2899  C2900   1.450   .     D
Fe2901 N2925   2.096   .     S
Fe2901 N2920   2.096   .     S
Fe2902 N2935   2.096   .     S
Fe2902 N2905   2.096   .     S
C2903  N2905   1.360   .     D
C2903  H2906   0.950   .     S
C2903  C543    1.360   1_556 S
C2904  H2907   0.950   .     S
C2904  C544    1.390   1_556 S
C2904  C2909   1.390   .     D
N2905  N525    1.360   1_556 S
C2908  N2910   1.360   .     D
C2908  H2911   0.950   .     S
C2908  C545    1.360   1_556 S
C2909  H2912   0.950   .     S
C2909  C546    1.390   1_556 S
N2910  Fe3102  2.096   .     S
N2910  N530    1.360   1_556 S
C2913  N2915   1.360   .     D
C2913  H2916   0.950   .     S
C2913  C2947   1.360   .     S
C2914  H2917   0.950   .     S
C2914  C2948   1.390   .     S
C2914  C2919   1.390   .     D
N2915  Fe2951  2.096   .     S
N2915  N2940   1.360   .     S
C2918  N2920   1.360   .     D
C2918  H2921   0.950   .     S
C2918  C2949   1.360   .     S
C2919  H2922   0.950   .     S
C2919  C2950   1.390   .     S
N2920  N2935   1.360   .     S
C2923  N2925   1.360   .     D
C2923  H2926   0.950   .     S
C2923  C2943   1.360   .     S
C2924  H2927   0.950   .     S
C2924  C2944   1.390   .     S
C2924  C2929   1.390   .     D
C2928  N2930   1.360   .     D
C2928  H2931   0.950   .     S
C2928  C2945   1.360   .     S
C2929  H2932   0.950   .     S
C2929  C2946   1.390   .     S
N2930  Fe3101  2.096   .     S
C2933  N2935   1.360   .     D
C2933  H2936   0.950   .     S
C2933  C2949   1.360   .     S
C2934  H2937   0.950   .     S
C2934  C2950   1.390   .     S
C2934  C2939   1.390   .     D
C2938  N2940   1.360   .     D
C2938  H2941   0.950   .     S
C2938  C2947   1.360   .     S
C2939  H2942   0.950   .     S
C2939  C2948   1.390   .     S
N2940  Fe2952  2.096   .     S
C2943  C2944   1.450   .     D
C2945  C2946   1.450   .     D
C2947  C2948   1.450   .     D
C2949  C2950   1.450   .     D
Fe2951 N2975   2.096   .     S
Fe2951 N2970   2.096   .     S
Fe2952 N2985   2.096   .     S
Fe2952 N2955   2.096   .     S
C2953  N2955   1.360   .     D
C2953  H2956   0.950   .     S
C2953  C593    1.360   1_556 S
C2954  H2957   0.950   .     S
C2954  C594    1.390   1_556 S
C2954  C2959   1.390   .     D
N2955  N575    1.360   1_556 S
C2958  N2960   1.360   .     D
C2958  H2961   0.950   .     S
C2958  C595    1.360   1_556 S
C2959  H2962   0.950   .     S
C2959  C596    1.390   1_556 S
N2960  Fe3152  2.096   .     S
N2960  N580    1.360   1_556 S
C2963  N2965   1.360   .     D
C2963  H2966   0.950   .     S
C2963  C2997   1.360   .     S
C2964  H2967   0.950   .     S
C2964  C2998   1.390   .     S
C2964  C2969   1.390   .     D
N2965  Fe2801  2.096   1_655 S
N2965  N2990   1.360   .     S
C2968  N2970   1.360   .     D
C2968  H2971   0.950   .     S
C2968  C2999   1.360   .     S
C2969  H2972   0.950   .     S
C2969  C3000   1.390   .     S
N2970  N2985   1.360   .     S
C2973  N2975   1.360   .     D
C2973  H2976   0.950   .     S
C2973  C2993   1.360   .     S
C2974  H2977   0.950   .     S
C2974  C2994   1.390   .     S
C2974  C2979   1.390   .     D
C2978  N2980   1.360   .     D
C2978  H2981   0.950   .     S
C2978  C2995   1.360   .     S
C2979  H2982   0.950   .     S
C2979  C2996   1.390   .     S
N2980  Fe3151  2.096   .     S
C2983  N2985   1.360   .     D
C2983  H2986   0.950   .     S
C2983  C2999   1.360   .     S
C2984  H2987   0.950   .     S
C2984  C3000   1.390   .     S
C2984  C2989   1.390   .     D
C2988  N2990   1.360   .     D
C2988  H2991   0.950   .     S
C2988  C2997   1.360   .     S
C2989  H2992   0.950   .     S
C2989  C2998   1.390   .     S
N2990  Fe2802  2.096   1_655 S
C2993  C2994   1.450   .     D
C2995  C2996   1.450   .     D
C2997  C2998   1.450   .     D
C2999  C3000   1.450   .     D
Fe3001 N3025   2.096   .     S
Fe3001 N3020   2.096   .     S
Fe3001 N3165   2.096   1_455 S
Fe3002 N3190   2.096   1_455 S
Fe3002 N3035   2.096   .     S
Fe3002 N3005   2.096   .     S
C3003  N3005   1.360   .     D
C3003  H3006   0.950   .     S
C3003  C643    1.360   1_556 S
C3004  H3007   0.950   .     S
C3004  C644    1.390   1_556 S
C3004  C3009   1.390   .     D
N3005  N625    1.360   1_556 S
C3008  N3010   1.360   .     D
C3008  H3011   0.950   .     S
C3008  C645    1.360   1_556 S
C3009  H3012   0.950   .     S
C3009  C646    1.390   1_556 S
N3010  Fe2402  2.096   1_565 S
N3010  N630    1.360   1_556 S
C3013  N3015   1.360   .     D
C3013  H3016   0.950   .     S
C3013  C3047   1.360   .     S
C3014  H3017   0.950   .     S
C3014  C3048   1.390   .     S
C3014  C3019   1.390   .     D
N3015  Fe3051  2.096   .     S
N3015  N3040   1.360   .     S
C3018  N3020   1.360   .     D
C3018  H3021   0.950   .     S
C3018  C3049   1.360   .     S
C3019  H3022   0.950   .     S
C3019  C3050   1.390   .     S
N3020  N3035   1.360   .     S
C3023  N3025   1.360   .     D
C3023  H3026   0.950   .     S
C3023  C3043   1.360   .     S
C3024  H3027   0.950   .     S
C3024  C3044   1.390   .     S
C3024  C3029   1.390   .     D
C3028  N3030   1.360   .     D
C3028  H3031   0.950   .     S
C3028  C3045   1.360   .     S
C3029  H3032   0.950   .     S
C3029  C3046   1.390   .     S
N3030  Fe2401  2.096   1_565 S
C3033  N3035   1.360   .     D
C3033  H3036   0.950   .     S
C3033  C3049   1.360   .     S
C3034  H3037   0.950   .     S
C3034  C3050   1.390   .     S
C3034  C3039   1.390   .     D
C3038  N3040   1.360   .     D
C3038  H3041   0.950   .     S
C3038  C3047   1.360   .     S
C3039  H3042   0.950   .     S
C3039  C3048   1.390   .     S
N3040  Fe3052  2.096   .     S
C3043  C3044   1.450   .     D
C3045  C3046   1.450   .     D
C3047  C3048   1.450   .     D
C3049  C3050   1.450   .     D
Fe3051 N3075   2.096   .     S
Fe3051 N3070   2.096   .     S
Fe3052 N3085   2.096   .     S
Fe3052 N3055   2.096   .     S
C3053  N3055   1.360   .     D
C3053  H3056   0.950   .     S
C3053  C693    1.360   1_556 S
C3054  H3057   0.950   .     S
C3054  C694    1.390   1_556 S
C3054  C3059   1.390   .     D
N3055  N675    1.360   1_556 S
C3058  N3060   1.360   .     D
C3058  H3061   0.950   .     S
C3058  C695    1.360   1_556 S
C3059  H3062   0.950   .     S
C3059  C696    1.390   1_556 S
N3060  Fe2452  2.096   1_565 S
N3060  N680    1.360   1_556 S
C3063  N3065   1.360   .     D
C3063  H3066   0.950   .     S
C3063  C3097   1.360   .     S
C3064  H3067   0.950   .     S
C3064  C3098   1.390   .     S
C3064  C3069   1.390   .     D
N3065  Fe3101  2.096   .     S
N3065  N3090   1.360   .     S
C3068  N3070   1.360   .     D
C3068  H3071   0.950   .     S
C3068  C3099   1.360   .     S
C3069  H3072   0.950   .     S
C3069  C3100   1.390   .     S
N3070  N3085   1.360   .     S
C3073  N3075   1.360   .     D
C3073  H3076   0.950   .     S
C3073  C3093   1.360   .     S
C3074  H3077   0.950   .     S
C3074  C3094   1.390   .     S
C3074  C3079   1.390   .     D
C3078  N3080   1.360   .     D
C3078  H3081   0.950   .     S
C3078  C3095   1.360   .     S
C3079  H3082   0.950   .     S
C3079  C3096   1.390   .     S
N3080  Fe2451  2.096   1_565 S
C3083  N3085   1.360   .     D
C3083  H3086   0.950   .     S
C3083  C3099   1.360   .     S
C3084  H3087   0.950   .     S
C3084  C3100   1.390   .     S
C3084  C3089   1.390   .     D
C3088  N3090   1.360   .     D
C3088  H3091   0.950   .     S
C3088  C3097   1.360   .     S
C3089  H3092   0.950   .     S
C3089  C3098   1.390   .     S
N3090  Fe3102  2.096   .     S
C3093  C3094   1.450   .     D
C3095  C3096   1.450   .     D
C3097  C3098   1.450   .     D
C3099  C3100   1.450   .     D
Fe3101 N3125   2.096   .     S
Fe3101 N3120   2.096   .     S
Fe3102 N3135   2.096   .     S
Fe3102 N3105   2.096   .     S
C3103  N3105   1.360   .     D
C3103  H3106   0.950   .     S
C3103  C743    1.360   1_556 S
C3104  H3107   0.950   .     S
C3104  C744    1.390   1_556 S
C3104  C3109   1.390   .     D
N3105  N725    1.360   1_556 S
C3108  N3110   1.360   .     D
C3108  H3111   0.950   .     S
C3108  C745    1.360   1_556 S
C3109  H3112   0.950   .     S
C3109  C746    1.390   1_556 S
N3110  Fe2502  2.096   1_565 S
N3110  N730    1.360   1_556 S
C3113  N3115   1.360   .     D
C3113  H3116   0.950   .     S
C3113  C3147   1.360   .     S
C3114  H3117   0.950   .     S
C3114  C3148   1.390   .     S
C3114  C3119   1.390   .     D
N3115  Fe3151  2.096   .     S
N3115  N3140   1.360   .     S
C3118  N3120   1.360   .     D
C3118  H3121   0.950   .     S
C3118  C3149   1.360   .     S
C3119  H3122   0.950   .     S
C3119  C3150   1.390   .     S
N3120  N3135   1.360   .     S
C3123  N3125   1.360   .     D
C3123  H3126   0.950   .     S
C3123  C3143   1.360   .     S
C3124  H3127   0.950   .     S
C3124  C3144   1.390   .     S
C3124  C3129   1.390   .     D
C3128  N3130   1.360   .     D
C3128  H3131   0.950   .     S
C3128  C3145   1.360   .     S
C3129  H3132   0.950   .     S
C3129  C3146   1.390   .     S
N3130  Fe2501  2.096   1_565 S
C3133  N3135   1.360   .     D
C3133  H3136   0.950   .     S
C3133  C3149   1.360   .     S
C3134  H3137   0.950   .     S
C3134  C3150   1.390   .     S
C3134  C3139   1.390   .     D
C3138  N3140   1.360   .     D
C3138  H3141   0.950   .     S
C3138  C3147   1.360   .     S
C3139  H3142   0.950   .     S
C3139  C3148   1.390   .     S
N3140  Fe3152  2.096   .     S
C3143  C3144   1.450   .     D
C3145  C3146   1.450   .     D
C3147  C3148   1.450   .     D
C3149  C3150   1.450   .     D
Fe3151 N3175   2.096   .     S
Fe3151 N3170   2.096   .     S
Fe3152 N3185   2.096   .     S
Fe3152 N3155   2.096   .     S
C3153  N3155   1.360   .     D
C3153  H3156   0.950   .     S
C3153  C793    1.360   1_556 S
C3154  H3157   0.950   .     S
C3154  C794    1.390   1_556 S
C3154  C3159   1.390   .     D
N3155  N775    1.360   1_556 S
C3158  N3160   1.360   .     D
C3158  H3161   0.950   .     S
C3158  C795    1.360   1_556 S
C3159  H3162   0.950   .     S
C3159  C796    1.390   1_556 S
N3160  Fe2552  2.096   1_565 S
N3160  N780    1.360   1_556 S
C3163  N3165   1.360   .     D
C3163  H3166   0.950   .     S
C3163  C3197   1.360   .     S
C3164  H3167   0.950   .     S
C3164  C3198   1.390   .     S
C3164  C3169   1.390   .     D
N3165  Fe3001  2.096   1_655 S
N3165  N3190   1.360   .     S
C3168  N3170   1.360   .     D
C3168  H3171   0.950   .     S
C3168  C3199   1.360   .     S
C3169  H3172   0.950   .     S
C3169  C3200   1.390   .     S
N3170  N3185   1.360   .     S
C3173  N3175   1.360   .     D
C3173  H3176   0.950   .     S
C3173  C3193   1.360   .     S
C3174  H3177   0.950   .     S
C3174  C3194   1.390   .     S
C3174  C3179   1.390   .     D
C3178  N3180   1.360   .     D
C3178  H3181   0.950   .     S
C3178  C3195   1.360   .     S
C3179  H3182   0.950   .     S
C3179  C3196   1.390   .     S
N3180  Fe2551  2.096   1_565 S
C3183  N3185   1.360   .     D
C3183  H3186   0.950   .     S
C3183  C3199   1.360   .     S
C3184  H3187   0.950   .     S
C3184  C3200   1.390   .     S
C3184  C3189   1.390   .     D
C3188  N3190   1.360   .     D
C3188  H3191   0.950   .     S
C3188  C3197   1.360   .     S
C3189  H3192   0.950   .     S
C3189  C3198   1.390   .     S
N3190  Fe3002  2.096   1_655 S
C3193  C3194   1.450   .     D
C3195  C3196   1.450   .     D
C3197  C3198   1.450   .     D
C3199  C3200   1.450   .     D
