data_Fe(bdp)_collapsed-no-H_4-4-4
_audit_creation_date              2020-05-25
_audit_creation_method            'Materials Studio'
_symmetry_space_group_name_H-M    'P1'
_symmetry_Int_Tables_number       1
_symmetry_cell_setting            triclinic
loop_
_symmetry_equiv_pos_as_xyz
  x,y,z
_cell_length_a                    100.3420
_cell_length_b                    27.5511
_cell_length_c                    27.9396
_cell_angle_alpha                 90.0000
_cell_angle_beta                  91.6527
_cell_angle_gamma                 90.0000
loop_
_atom_site_label
_atom_site_type_symbol
_atom_site_fract_x
_atom_site_fract_y
_atom_site_fract_z
_atom_site_U_iso_or_equiv
_atom_site_adp_type
_atom_site_occupancy
H1     H     0.08362   0.19282   0.24459   0.12311  Uiso   0.00
C2     C     0.09798   0.21826   0.20948   0.12311  Uiso   1.00
C3     C     0.09983   0.18329   0.03017   0.12311  Uiso   1.00
C4     C     0.09102   0.19667   0.24471   0.12311  Uiso   1.00
C5     C     0.07622   0.18896   0.24448   0.12311  Uiso   1.00
C6     C     0.05418   0.21632   0.22131   0.12311  Uiso   1.00
C7     C     0.06789   0.21779   0.21580   0.12311  Uiso   1.00
N8     N     0.11109   0.21823   0.22318   0.12311  Uiso   1.00
N9     N     0.11224   0.19662   0.01686   0.12311  Uiso   1.00
H10    H     0.20862   0.06782   0.24459   0.12311  Uiso   0.00
C11    C     0.22298   0.09326   0.20948   0.12311  Uiso   1.00
C12    C     0.22483   0.05829   0.03017   0.12311  Uiso   1.00
C13    C     0.21602   0.07167   0.24471   0.12311  Uiso   1.00
C14    C     0.20122   0.06396   0.24448   0.12311  Uiso   1.00
C15    C     0.17918   0.09132   0.22131   0.12311  Uiso   1.00
C16    C     0.19289   0.09279   0.21580   0.12311  Uiso   1.00
N17    N     0.23609   0.09323   0.22318   0.12311  Uiso   1.00
N18    N     0.23724   0.07162   0.01686   0.12311  Uiso   1.00
H19    H     0.16638   0.19282   0.13041   0.12311  Uiso   0.00
C20    C     0.15202   0.21826   0.16552   0.12311  Uiso   1.00
C21    C     0.15017   0.18329   0.09483   0.12311  Uiso   1.00
C22    C     0.15898   0.19667   0.13029   0.12311  Uiso   1.00
C23    C     0.17378   0.18896   0.13052   0.12311  Uiso   1.00
C24    C     0.19582   0.21632   0.15369   0.12311  Uiso   1.00
C25    C     0.18211   0.21779   0.15920   0.12311  Uiso   1.00
N26    N     0.13891   0.21823   0.15182   0.12311  Uiso   1.00
N27    N     0.13776   0.19662   0.10814   0.12311  Uiso   1.00
H28    H     0.04138   0.06782   0.13041   0.12311  Uiso   0.00
C29    C     0.02702   0.09326   0.16552   0.12311  Uiso   1.00
C30    C     0.02517   0.05829   0.09483   0.12311  Uiso   1.00
C31    C     0.03398   0.07167   0.13029   0.12311  Uiso   1.00
C32    C     0.04878   0.06396   0.13052   0.12311  Uiso   1.00
C33    C     0.07082   0.09132   0.15369   0.12311  Uiso   1.00
C34    C     0.05711   0.09279   0.15920   0.12311  Uiso   1.00
N35    N     0.01391   0.09323   0.15182   0.12311  Uiso   1.00
N36    N     0.01276   0.07162   0.10814   0.12311  Uiso   1.00
H37    H     0.16638   0.05718   0.00541   0.12311  Uiso   0.00
C38    C     0.15202   0.03174   0.04052   0.12311  Uiso   1.00
C39    C     0.15017   0.06671   0.21983   0.12311  Uiso   1.00
C40    C     0.15898   0.05333   0.00529   0.12311  Uiso   1.00
C41    C     0.17378   0.06104   0.00552   0.12311  Uiso   1.00
C42    C     0.19582   0.03368   0.02869   0.12311  Uiso   1.00
C43    C     0.18211   0.03221   0.03420   0.12311  Uiso   1.00
N44    N     0.13891   0.03177   0.02682   0.12311  Uiso   1.00
N45    N     0.13776   0.05338   0.23314   0.12311  Uiso   1.00
H46    H     0.04138   0.18218   0.00541   0.12311  Uiso   0.00
C47    C     0.02702   0.15674   0.04052   0.12311  Uiso   1.00
C48    C     0.02517   0.19171   0.21983   0.12311  Uiso   1.00
C49    C     0.03398   0.17833   0.00529   0.12311  Uiso   1.00
C50    C     0.04878   0.18604   0.00552   0.12311  Uiso   1.00
C51    C     0.07082   0.15868   0.02869   0.12311  Uiso   1.00
C52    C     0.05711   0.15721   0.03420   0.12311  Uiso   1.00
N53    N     0.01391   0.15677   0.02682   0.12311  Uiso   1.00
N54    N     0.01276   0.17838   0.23314   0.12311  Uiso   1.00
H55    H     0.08362   0.05718   0.11959   0.12311  Uiso   0.00
C56    C     0.09798   0.03174   0.08448   0.12311  Uiso   1.00
C57    C     0.09983   0.06671   0.15517   0.12311  Uiso   1.00
C58    C     0.09102   0.05333   0.11971   0.12311  Uiso   1.00
C59    C     0.07622   0.06104   0.11948   0.12311  Uiso   1.00
C60    C     0.05418   0.03368   0.09631   0.12311  Uiso   1.00
C61    C     0.06789   0.03221   0.09080   0.12311  Uiso   1.00
N62    N     0.11109   0.03177   0.09818   0.12311  Uiso   1.00
N63    N     0.11224   0.05338   0.14186   0.12311  Uiso   1.00
H64    H     0.20862   0.18218   0.11959   0.12311  Uiso   0.00
C65    C     0.22298   0.15674   0.08448   0.12311  Uiso   1.00
C66    C     0.22483   0.19171   0.15517   0.12311  Uiso   1.00
C67    C     0.21602   0.17833   0.11971   0.12311  Uiso   1.00
C68    C     0.20122   0.18604   0.11948   0.12311  Uiso   1.00
C69    C     0.17918   0.15868   0.09631   0.12311  Uiso   1.00
C70    C     0.19289   0.15721   0.09080   0.12311  Uiso   1.00
N71    N     0.23609   0.15677   0.09818   0.12311  Uiso   1.00
N72    N     0.23724   0.17838   0.14186   0.12311  Uiso   1.00
Fe73   Fe    0.00000   0.11461   0.06250   0.12311  Uiso   1.00
Fe74   Fe    0.12500   0.23961   0.06250   0.12311  Uiso   1.00
Fe75   Fe    0.00000   0.13539   0.18750   0.12311  Uiso   1.00
Fe76   Fe    0.12500   0.01039   0.18750   0.12311  Uiso   1.00
H77    H     0.33362   0.19282   0.24459   0.12311  Uiso   0.00
C78    C     0.34798   0.21826   0.20948   0.12311  Uiso   1.00
C79    C     0.34983   0.18329   0.03017   0.12311  Uiso   1.00
C80    C     0.34102   0.19667   0.24471   0.12311  Uiso   1.00
C81    C     0.32622   0.18896   0.24448   0.12311  Uiso   1.00
C82    C     0.30418   0.21632   0.22131   0.12311  Uiso   1.00
C83    C     0.31789   0.21779   0.21580   0.12311  Uiso   1.00
N84    N     0.36109   0.21823   0.22318   0.12311  Uiso   1.00
N85    N     0.36224   0.19662   0.01686   0.12311  Uiso   1.00
H86    H     0.45862   0.06782   0.24459   0.12311  Uiso   0.00
C87    C     0.47298   0.09326   0.20948   0.12311  Uiso   1.00
C88    C     0.47483   0.05829   0.03017   0.12311  Uiso   1.00
C89    C     0.46602   0.07167   0.24471   0.12311  Uiso   1.00
C90    C     0.45122   0.06396   0.24448   0.12311  Uiso   1.00
C91    C     0.42918   0.09132   0.22131   0.12311  Uiso   1.00
C92    C     0.44289   0.09279   0.21580   0.12311  Uiso   1.00
N93    N     0.48609   0.09323   0.22318   0.12311  Uiso   1.00
N94    N     0.48724   0.07162   0.01686   0.12311  Uiso   1.00
H95    H     0.41638   0.19282   0.13041   0.12311  Uiso   0.00
C96    C     0.40202   0.21826   0.16552   0.12311  Uiso   1.00
C97    C     0.40017   0.18329   0.09483   0.12311  Uiso   1.00
C98    C     0.40898   0.19667   0.13029   0.12311  Uiso   1.00
C99    C     0.42378   0.18896   0.13052   0.12311  Uiso   1.00
C100   C     0.44582   0.21632   0.15369   0.12311  Uiso   1.00
C101   C     0.43211   0.21779   0.15920   0.12311  Uiso   1.00
N102   N     0.38891   0.21823   0.15182   0.12311  Uiso   1.00
N103   N     0.38776   0.19662   0.10814   0.12311  Uiso   1.00
H104   H     0.29138   0.06782   0.13041   0.12311  Uiso   0.00
C105   C     0.27702   0.09326   0.16552   0.12311  Uiso   1.00
C106   C     0.27517   0.05829   0.09483   0.12311  Uiso   1.00
C107   C     0.28398   0.07167   0.13029   0.12311  Uiso   1.00
C108   C     0.29878   0.06396   0.13052   0.12311  Uiso   1.00
C109   C     0.32082   0.09132   0.15369   0.12311  Uiso   1.00
C110   C     0.30711   0.09279   0.15920   0.12311  Uiso   1.00
N111   N     0.26391   0.09323   0.15182   0.12311  Uiso   1.00
N112   N     0.26276   0.07162   0.10814   0.12311  Uiso   1.00
H113   H     0.41638   0.05718   0.00541   0.12311  Uiso   0.00
C114   C     0.40202   0.03174   0.04052   0.12311  Uiso   1.00
C115   C     0.40017   0.06671   0.21983   0.12311  Uiso   1.00
C116   C     0.40898   0.05333   0.00529   0.12311  Uiso   1.00
C117   C     0.42378   0.06104   0.00552   0.12311  Uiso   1.00
C118   C     0.44582   0.03368   0.02869   0.12311  Uiso   1.00
C119   C     0.43211   0.03221   0.03420   0.12311  Uiso   1.00
N120   N     0.38891   0.03177   0.02682   0.12311  Uiso   1.00
N121   N     0.38776   0.05338   0.23314   0.12311  Uiso   1.00
H122   H     0.29138   0.18218   0.00541   0.12311  Uiso   0.00
C123   C     0.27702   0.15674   0.04052   0.12311  Uiso   1.00
C124   C     0.27517   0.19171   0.21983   0.12311  Uiso   1.00
C125   C     0.28398   0.17833   0.00529   0.12311  Uiso   1.00
C126   C     0.29878   0.18604   0.00552   0.12311  Uiso   1.00
C127   C     0.32082   0.15868   0.02869   0.12311  Uiso   1.00
C128   C     0.30711   0.15721   0.03420   0.12311  Uiso   1.00
N129   N     0.26391   0.15677   0.02682   0.12311  Uiso   1.00
N130   N     0.26276   0.17838   0.23314   0.12311  Uiso   1.00
H131   H     0.33362   0.05718   0.11959   0.12311  Uiso   0.00
C132   C     0.34798   0.03174   0.08448   0.12311  Uiso   1.00
C133   C     0.34983   0.06671   0.15517   0.12311  Uiso   1.00
C134   C     0.34102   0.05333   0.11971   0.12311  Uiso   1.00
C135   C     0.32622   0.06104   0.11948   0.12311  Uiso   1.00
C136   C     0.30418   0.03368   0.09631   0.12311  Uiso   1.00
C137   C     0.31789   0.03221   0.09080   0.12311  Uiso   1.00
N138   N     0.36109   0.03177   0.09818   0.12311  Uiso   1.00
N139   N     0.36224   0.05338   0.14186   0.12311  Uiso   1.00
H140   H     0.45862   0.18218   0.11959   0.12311  Uiso   0.00
C141   C     0.47298   0.15674   0.08448   0.12311  Uiso   1.00
C142   C     0.47483   0.19171   0.15517   0.12311  Uiso   1.00
C143   C     0.46602   0.17833   0.11971   0.12311  Uiso   1.00
C144   C     0.45122   0.18604   0.11948   0.12311  Uiso   1.00
C145   C     0.42918   0.15868   0.09631   0.12311  Uiso   1.00
C146   C     0.44289   0.15721   0.09080   0.12311  Uiso   1.00
N147   N     0.48609   0.15677   0.09818   0.12311  Uiso   1.00
N148   N     0.48724   0.17838   0.14186   0.12311  Uiso   1.00
Fe149  Fe    0.25000   0.11461   0.06250   0.12311  Uiso   1.00
Fe150  Fe    0.37500   0.23961   0.06250   0.12311  Uiso   1.00
Fe151  Fe    0.25000   0.13539   0.18750   0.12311  Uiso   1.00
Fe152  Fe    0.37500   0.01039   0.18750   0.12311  Uiso   1.00
H153   H     0.58362   0.19282   0.24459   0.12311  Uiso   0.00
C154   C     0.59798   0.21826   0.20948   0.12311  Uiso   1.00
C155   C     0.59983   0.18329   0.03017   0.12311  Uiso   1.00
C156   C     0.59102   0.19667   0.24471   0.12311  Uiso   1.00
C157   C     0.57622   0.18896   0.24448   0.12311  Uiso   1.00
C158   C     0.55418   0.21632   0.22131   0.12311  Uiso   1.00
C159   C     0.56789   0.21779   0.21580   0.12311  Uiso   1.00
N160   N     0.61109   0.21823   0.22318   0.12311  Uiso   1.00
N161   N     0.61224   0.19662   0.01686   0.12311  Uiso   1.00
H162   H     0.70862   0.06782   0.24459   0.12311  Uiso   0.00
C163   C     0.72298   0.09326   0.20948   0.12311  Uiso   1.00
C164   C     0.72483   0.05829   0.03017   0.12311  Uiso   1.00
C165   C     0.71602   0.07167   0.24471   0.12311  Uiso   1.00
C166   C     0.70122   0.06396   0.24448   0.12311  Uiso   1.00
C167   C     0.67918   0.09132   0.22131   0.12311  Uiso   1.00
C168   C     0.69289   0.09279   0.21580   0.12311  Uiso   1.00
N169   N     0.73609   0.09323   0.22318   0.12311  Uiso   1.00
N170   N     0.73724   0.07162   0.01686   0.12311  Uiso   1.00
H171   H     0.66638   0.19282   0.13041   0.12311  Uiso   0.00
C172   C     0.65202   0.21826   0.16552   0.12311  Uiso   1.00
C173   C     0.65017   0.18329   0.09483   0.12311  Uiso   1.00
C174   C     0.65898   0.19667   0.13029   0.12311  Uiso   1.00
C175   C     0.67378   0.18896   0.13052   0.12311  Uiso   1.00
C176   C     0.69582   0.21632   0.15369   0.12311  Uiso   1.00
C177   C     0.68211   0.21779   0.15920   0.12311  Uiso   1.00
N178   N     0.63891   0.21823   0.15182   0.12311  Uiso   1.00
N179   N     0.63776   0.19662   0.10814   0.12311  Uiso   1.00
H180   H     0.54138   0.06782   0.13041   0.12311  Uiso   0.00
C181   C     0.52702   0.09326   0.16552   0.12311  Uiso   1.00
C182   C     0.52517   0.05829   0.09483   0.12311  Uiso   1.00
C183   C     0.53398   0.07167   0.13029   0.12311  Uiso   1.00
C184   C     0.54878   0.06396   0.13052   0.12311  Uiso   1.00
C185   C     0.57082   0.09132   0.15369   0.12311  Uiso   1.00
C186   C     0.55711   0.09279   0.15920   0.12311  Uiso   1.00
N187   N     0.51391   0.09323   0.15182   0.12311  Uiso   1.00
N188   N     0.51276   0.07162   0.10814   0.12311  Uiso   1.00
H189   H     0.66638   0.05718   0.00541   0.12311  Uiso   0.00
C190   C     0.65202   0.03174   0.04052   0.12311  Uiso   1.00
C191   C     0.65017   0.06671   0.21983   0.12311  Uiso   1.00
C192   C     0.65898   0.05333   0.00529   0.12311  Uiso   1.00
C193   C     0.67378   0.06104   0.00552   0.12311  Uiso   1.00
C194   C     0.69582   0.03368   0.02869   0.12311  Uiso   1.00
C195   C     0.68211   0.03221   0.03420   0.12311  Uiso   1.00
N196   N     0.63891   0.03177   0.02682   0.12311  Uiso   1.00
N197   N     0.63776   0.05338   0.23314   0.12311  Uiso   1.00
H198   H     0.54138   0.18218   0.00541   0.12311  Uiso   0.00
C199   C     0.52702   0.15674   0.04052   0.12311  Uiso   1.00
C200   C     0.52517   0.19171   0.21983   0.12311  Uiso   1.00
C201   C     0.53398   0.17833   0.00529   0.12311  Uiso   1.00
C202   C     0.54878   0.18604   0.00552   0.12311  Uiso   1.00
C203   C     0.57082   0.15868   0.02869   0.12311  Uiso   1.00
C204   C     0.55711   0.15721   0.03420   0.12311  Uiso   1.00
N205   N     0.51391   0.15677   0.02682   0.12311  Uiso   1.00
N206   N     0.51276   0.17838   0.23314   0.12311  Uiso   1.00
H207   H     0.58362   0.05718   0.11959   0.12311  Uiso   0.00
C208   C     0.59798   0.03174   0.08448   0.12311  Uiso   1.00
C209   C     0.59983   0.06671   0.15517   0.12311  Uiso   1.00
C210   C     0.59102   0.05333   0.11971   0.12311  Uiso   1.00
C211   C     0.57622   0.06104   0.11948   0.12311  Uiso   1.00
C212   C     0.55418   0.03368   0.09631   0.12311  Uiso   1.00
C213   C     0.56789   0.03221   0.09080   0.12311  Uiso   1.00
N214   N     0.61109   0.03177   0.09818   0.12311  Uiso   1.00
N215   N     0.61224   0.05338   0.14186   0.12311  Uiso   1.00
H216   H     0.70862   0.18218   0.11959   0.12311  Uiso   0.00
C217   C     0.72298   0.15674   0.08448   0.12311  Uiso   1.00
C218   C     0.72483   0.19171   0.15517   0.12311  Uiso   1.00
C219   C     0.71602   0.17833   0.11971   0.12311  Uiso   1.00
C220   C     0.70122   0.18604   0.11948   0.12311  Uiso   1.00
C221   C     0.67918   0.15868   0.09631   0.12311  Uiso   1.00
C222   C     0.69289   0.15721   0.09080   0.12311  Uiso   1.00
N223   N     0.73609   0.15677   0.09818   0.12311  Uiso   1.00
N224   N     0.73724   0.17838   0.14186   0.12311  Uiso   1.00
Fe225  Fe    0.50000   0.11461   0.06250   0.12311  Uiso   1.00
Fe226  Fe    0.62500   0.23961   0.06250   0.12311  Uiso   1.00
Fe227  Fe    0.50000   0.13539   0.18750   0.12311  Uiso   1.00
Fe228  Fe    0.62500   0.01039   0.18750   0.12311  Uiso   1.00
H229   H     0.83362   0.19282   0.24459   0.12311  Uiso   0.00
C230   C     0.84798   0.21826   0.20948   0.12311  Uiso   1.00
C231   C     0.84983   0.18329   0.03017   0.12311  Uiso   1.00
C232   C     0.84102   0.19667   0.24471   0.12311  Uiso   1.00
C233   C     0.82622   0.18896   0.24448   0.12311  Uiso   1.00
C234   C     0.80418   0.21632   0.22131   0.12311  Uiso   1.00
C235   C     0.81789   0.21779   0.21580   0.12311  Uiso   1.00
N236   N     0.86109   0.21823   0.22318   0.12311  Uiso   1.00
N237   N     0.86224   0.19662   0.01686   0.12311  Uiso   1.00
H238   H     0.95862   0.06782   0.24459   0.12311  Uiso   0.00
C239   C     0.97298   0.09326   0.20948   0.12311  Uiso   1.00
C240   C     0.97483   0.05829   0.03017   0.12311  Uiso   1.00
C241   C     0.96602   0.07167   0.24471   0.12311  Uiso   1.00
C242   C     0.95122   0.06396   0.24448   0.12311  Uiso   1.00
C243   C     0.92918   0.09132   0.22131   0.12311  Uiso   1.00
C244   C     0.94289   0.09279   0.21580   0.12311  Uiso   1.00
N245   N     0.98609   0.09323   0.22318   0.12311  Uiso   1.00
N246   N     0.98724   0.07162   0.01686   0.12311  Uiso   1.00
H247   H     0.91638   0.19282   0.13041   0.12311  Uiso   0.00
C248   C     0.90202   0.21826   0.16552   0.12311  Uiso   1.00
C249   C     0.90017   0.18329   0.09483   0.12311  Uiso   1.00
C250   C     0.90898   0.19667   0.13029   0.12311  Uiso   1.00
C251   C     0.92378   0.18896   0.13052   0.12311  Uiso   1.00
C252   C     0.94582   0.21632   0.15369   0.12311  Uiso   1.00
C253   C     0.93211   0.21779   0.15920   0.12311  Uiso   1.00
N254   N     0.88891   0.21823   0.15182   0.12311  Uiso   1.00
N255   N     0.88776   0.19662   0.10814   0.12311  Uiso   1.00
H256   H     0.79138   0.06782   0.13041   0.12311  Uiso   0.00
C257   C     0.77702   0.09326   0.16552   0.12311  Uiso   1.00
C258   C     0.77517   0.05829   0.09483   0.12311  Uiso   1.00
C259   C     0.78398   0.07167   0.13029   0.12311  Uiso   1.00
C260   C     0.79878   0.06396   0.13052   0.12311  Uiso   1.00
C261   C     0.82082   0.09132   0.15369   0.12311  Uiso   1.00
C262   C     0.80711   0.09279   0.15920   0.12311  Uiso   1.00
N263   N     0.76391   0.09323   0.15182   0.12311  Uiso   1.00
N264   N     0.76276   0.07162   0.10814   0.12311  Uiso   1.00
H265   H     0.91638   0.05718   0.00541   0.12311  Uiso   0.00
C266   C     0.90202   0.03174   0.04052   0.12311  Uiso   1.00
C267   C     0.90017   0.06671   0.21983   0.12311  Uiso   1.00
C268   C     0.90898   0.05333   0.00529   0.12311  Uiso   1.00
C269   C     0.92378   0.06104   0.00552   0.12311  Uiso   1.00
C270   C     0.94582   0.03368   0.02869   0.12311  Uiso   1.00
C271   C     0.93211   0.03221   0.03420   0.12311  Uiso   1.00
N272   N     0.88891   0.03177   0.02682   0.12311  Uiso   1.00
N273   N     0.88776   0.05338   0.23314   0.12311  Uiso   1.00
H274   H     0.79138   0.18218   0.00541   0.12311  Uiso   0.00
C275   C     0.77702   0.15674   0.04052   0.12311  Uiso   1.00
C276   C     0.77517   0.19171   0.21983   0.12311  Uiso   1.00
C277   C     0.78398   0.17833   0.00529   0.12311  Uiso   1.00
C278   C     0.79878   0.18604   0.00552   0.12311  Uiso   1.00
C279   C     0.82082   0.15868   0.02869   0.12311  Uiso   1.00
C280   C     0.80711   0.15721   0.03420   0.12311  Uiso   1.00
N281   N     0.76391   0.15677   0.02682   0.12311  Uiso   1.00
N282   N     0.76276   0.17838   0.23314   0.12311  Uiso   1.00
H283   H     0.83362   0.05718   0.11959   0.12311  Uiso   0.00
C284   C     0.84798   0.03174   0.08448   0.12311  Uiso   1.00
C285   C     0.84983   0.06671   0.15517   0.12311  Uiso   1.00
C286   C     0.84102   0.05333   0.11971   0.12311  Uiso   1.00
C287   C     0.82622   0.06104   0.11948   0.12311  Uiso   1.00
C288   C     0.80418   0.03368   0.09631   0.12311  Uiso   1.00
C289   C     0.81789   0.03221   0.09080   0.12311  Uiso   1.00
N290   N     0.86109   0.03177   0.09818   0.12311  Uiso   1.00
N291   N     0.86224   0.05338   0.14186   0.12311  Uiso   1.00
H292   H     0.95862   0.18218   0.11959   0.12311  Uiso   0.00
C293   C     0.97298   0.15674   0.08448   0.12311  Uiso   1.00
C294   C     0.97483   0.19171   0.15517   0.12311  Uiso   1.00
C295   C     0.96602   0.17833   0.11971   0.12311  Uiso   1.00
C296   C     0.95122   0.18604   0.11948   0.12311  Uiso   1.00
C297   C     0.92918   0.15868   0.09631   0.12311  Uiso   1.00
C298   C     0.94289   0.15721   0.09080   0.12311  Uiso   1.00
N299   N     0.98609   0.15677   0.09818   0.12311  Uiso   1.00
N300   N     0.98724   0.17838   0.14186   0.12311  Uiso   1.00
Fe301  Fe    0.75000   0.11461   0.06250   0.12311  Uiso   1.00
Fe302  Fe    0.87500   0.23961   0.06250   0.12311  Uiso   1.00
Fe303  Fe    0.75000   0.13539   0.18750   0.12311  Uiso   1.00
Fe304  Fe    0.87500   0.01039   0.18750   0.12311  Uiso   1.00
H305   H     0.08362   0.44282   0.24459   0.12311  Uiso   0.00
C306   C     0.09798   0.46826   0.20948   0.12311  Uiso   1.00
C307   C     0.09983   0.43329   0.03017   0.12311  Uiso   1.00
C308   C     0.09102   0.44667   0.24471   0.12311  Uiso   1.00
C309   C     0.07622   0.43896   0.24448   0.12311  Uiso   1.00
C310   C     0.05418   0.46632   0.22131   0.12311  Uiso   1.00
C311   C     0.06789   0.46779   0.21580   0.12311  Uiso   1.00
N312   N     0.11109   0.46823   0.22318   0.12311  Uiso   1.00
N313   N     0.11224   0.44662   0.01686   0.12311  Uiso   1.00
H314   H     0.20862   0.31782   0.24459   0.12311  Uiso   0.00
C315   C     0.22298   0.34326   0.20948   0.12311  Uiso   1.00
C316   C     0.22483   0.30829   0.03017   0.12311  Uiso   1.00
C317   C     0.21602   0.32167   0.24471   0.12311  Uiso   1.00
C318   C     0.20122   0.31396   0.24448   0.12311  Uiso   1.00
C319   C     0.17918   0.34132   0.22131   0.12311  Uiso   1.00
C320   C     0.19289   0.34279   0.21580   0.12311  Uiso   1.00
N321   N     0.23609   0.34323   0.22318   0.12311  Uiso   1.00
N322   N     0.23724   0.32162   0.01686   0.12311  Uiso   1.00
H323   H     0.16638   0.44282   0.13041   0.12311  Uiso   0.00
C324   C     0.15202   0.46826   0.16552   0.12311  Uiso   1.00
C325   C     0.15017   0.43329   0.09483   0.12311  Uiso   1.00
C326   C     0.15898   0.44667   0.13029   0.12311  Uiso   1.00
C327   C     0.17378   0.43896   0.13052   0.12311  Uiso   1.00
C328   C     0.19582   0.46632   0.15369   0.12311  Uiso   1.00
C329   C     0.18211   0.46779   0.15920   0.12311  Uiso   1.00
N330   N     0.13891   0.46823   0.15182   0.12311  Uiso   1.00
N331   N     0.13776   0.44662   0.10814   0.12311  Uiso   1.00
H332   H     0.04138   0.31782   0.13041   0.12311  Uiso   0.00
C333   C     0.02702   0.34326   0.16552   0.12311  Uiso   1.00
C334   C     0.02517   0.30829   0.09483   0.12311  Uiso   1.00
C335   C     0.03398   0.32167   0.13029   0.12311  Uiso   1.00
C336   C     0.04878   0.31396   0.13052   0.12311  Uiso   1.00
C337   C     0.07082   0.34132   0.15369   0.12311  Uiso   1.00
C338   C     0.05711   0.34279   0.15920   0.12311  Uiso   1.00
N339   N     0.01391   0.34323   0.15182   0.12311  Uiso   1.00
N340   N     0.01276   0.32162   0.10814   0.12311  Uiso   1.00
H341   H     0.16638   0.30718   0.00541   0.12311  Uiso   0.00
C342   C     0.15202   0.28174   0.04052   0.12311  Uiso   1.00
C343   C     0.15017   0.31671   0.21983   0.12311  Uiso   1.00
C344   C     0.15898   0.30333   0.00529   0.12311  Uiso   1.00
C345   C     0.17378   0.31104   0.00552   0.12311  Uiso   1.00
C346   C     0.19582   0.28368   0.02869   0.12311  Uiso   1.00
C347   C     0.18211   0.28221   0.03420   0.12311  Uiso   1.00
N348   N     0.13891   0.28177   0.02682   0.12311  Uiso   1.00
N349   N     0.13776   0.30338   0.23314   0.12311  Uiso   1.00
H350   H     0.04138   0.43218   0.00541   0.12311  Uiso   0.00
C351   C     0.02702   0.40674   0.04052   0.12311  Uiso   1.00
C352   C     0.02517   0.44171   0.21983   0.12311  Uiso   1.00
C353   C     0.03398   0.42833   0.00529   0.12311  Uiso   1.00
C354   C     0.04878   0.43604   0.00552   0.12311  Uiso   1.00
C355   C     0.07082   0.40868   0.02869   0.12311  Uiso   1.00
C356   C     0.05711   0.40721   0.03420   0.12311  Uiso   1.00
N357   N     0.01391   0.40677   0.02682   0.12311  Uiso   1.00
N358   N     0.01276   0.42838   0.23314   0.12311  Uiso   1.00
H359   H     0.08362   0.30718   0.11959   0.12311  Uiso   0.00
C360   C     0.09798   0.28174   0.08448   0.12311  Uiso   1.00
C361   C     0.09983   0.31671   0.15517   0.12311  Uiso   1.00
C362   C     0.09102   0.30333   0.11971   0.12311  Uiso   1.00
C363   C     0.07622   0.31104   0.11948   0.12311  Uiso   1.00
C364   C     0.05418   0.28368   0.09631   0.12311  Uiso   1.00
C365   C     0.06789   0.28221   0.09080   0.12311  Uiso   1.00
N366   N     0.11109   0.28177   0.09818   0.12311  Uiso   1.00
N367   N     0.11224   0.30338   0.14186   0.12311  Uiso   1.00
H368   H     0.20862   0.43218   0.11959   0.12311  Uiso   0.00
C369   C     0.22298   0.40674   0.08448   0.12311  Uiso   1.00
C370   C     0.22483   0.44171   0.15517   0.12311  Uiso   1.00
C371   C     0.21602   0.42833   0.11971   0.12311  Uiso   1.00
C372   C     0.20122   0.43604   0.11948   0.12311  Uiso   1.00
C373   C     0.17918   0.40868   0.09631   0.12311  Uiso   1.00
C374   C     0.19289   0.40721   0.09080   0.12311  Uiso   1.00
N375   N     0.23609   0.40677   0.09818   0.12311  Uiso   1.00
N376   N     0.23724   0.42838   0.14186   0.12311  Uiso   1.00
Fe377  Fe    0.00000   0.36461   0.06250   0.12311  Uiso   1.00
Fe378  Fe    0.12500   0.48961   0.06250   0.12311  Uiso   1.00
Fe379  Fe    0.00000   0.38539   0.18750   0.12311  Uiso   1.00
Fe380  Fe    0.12500   0.26039   0.18750   0.12311  Uiso   1.00
H381   H     0.33362   0.44282   0.24459   0.12311  Uiso   0.00
C382   C     0.34798   0.46826   0.20948   0.12311  Uiso   1.00
C383   C     0.34983   0.43329   0.03017   0.12311  Uiso   1.00
C384   C     0.34102   0.44667   0.24471   0.12311  Uiso   1.00
C385   C     0.32622   0.43896   0.24448   0.12311  Uiso   1.00
C386   C     0.30418   0.46632   0.22131   0.12311  Uiso   1.00
C387   C     0.31789   0.46779   0.21580   0.12311  Uiso   1.00
N388   N     0.36109   0.46823   0.22318   0.12311  Uiso   1.00
N389   N     0.36224   0.44662   0.01686   0.12311  Uiso   1.00
H390   H     0.45862   0.31782   0.24459   0.12311  Uiso   0.00
C391   C     0.47298   0.34326   0.20948   0.12311  Uiso   1.00
C392   C     0.47483   0.30829   0.03017   0.12311  Uiso   1.00
C393   C     0.46602   0.32167   0.24471   0.12311  Uiso   1.00
C394   C     0.45122   0.31396   0.24448   0.12311  Uiso   1.00
C395   C     0.42918   0.34132   0.22131   0.12311  Uiso   1.00
C396   C     0.44289   0.34279   0.21580   0.12311  Uiso   1.00
N397   N     0.48609   0.34323   0.22318   0.12311  Uiso   1.00
N398   N     0.48724   0.32162   0.01686   0.12311  Uiso   1.00
H399   H     0.41638   0.44282   0.13041   0.12311  Uiso   0.00
C400   C     0.40202   0.46826   0.16552   0.12311  Uiso   1.00
C401   C     0.40017   0.43329   0.09483   0.12311  Uiso   1.00
C402   C     0.40898   0.44667   0.13029   0.12311  Uiso   1.00
C403   C     0.42378   0.43896   0.13052   0.12311  Uiso   1.00
C404   C     0.44582   0.46632   0.15369   0.12311  Uiso   1.00
C405   C     0.43211   0.46779   0.15920   0.12311  Uiso   1.00
N406   N     0.38891   0.46823   0.15182   0.12311  Uiso   1.00
N407   N     0.38776   0.44662   0.10814   0.12311  Uiso   1.00
H408   H     0.29138   0.31782   0.13041   0.12311  Uiso   0.00
C409   C     0.27702   0.34326   0.16552   0.12311  Uiso   1.00
C410   C     0.27517   0.30829   0.09483   0.12311  Uiso   1.00
C411   C     0.28398   0.32167   0.13029   0.12311  Uiso   1.00
C412   C     0.29878   0.31396   0.13052   0.12311  Uiso   1.00
C413   C     0.32082   0.34132   0.15369   0.12311  Uiso   1.00
C414   C     0.30711   0.34279   0.15920   0.12311  Uiso   1.00
N415   N     0.26391   0.34323   0.15182   0.12311  Uiso   1.00
N416   N     0.26276   0.32162   0.10814   0.12311  Uiso   1.00
H417   H     0.41638   0.30718   0.00541   0.12311  Uiso   0.00
C418   C     0.40202   0.28174   0.04052   0.12311  Uiso   1.00
C419   C     0.40017   0.31671   0.21983   0.12311  Uiso   1.00
C420   C     0.40898   0.30333   0.00529   0.12311  Uiso   1.00
C421   C     0.42378   0.31104   0.00552   0.12311  Uiso   1.00
C422   C     0.44582   0.28368   0.02869   0.12311  Uiso   1.00
C423   C     0.43211   0.28221   0.03420   0.12311  Uiso   1.00
N424   N     0.38891   0.28177   0.02682   0.12311  Uiso   1.00
N425   N     0.38776   0.30338   0.23314   0.12311  Uiso   1.00
H426   H     0.29138   0.43218   0.00541   0.12311  Uiso   0.00
C427   C     0.27702   0.40674   0.04052   0.12311  Uiso   1.00
C428   C     0.27517   0.44171   0.21983   0.12311  Uiso   1.00
C429   C     0.28398   0.42833   0.00529   0.12311  Uiso   1.00
C430   C     0.29878   0.43604   0.00552   0.12311  Uiso   1.00
C431   C     0.32082   0.40868   0.02869   0.12311  Uiso   1.00
C432   C     0.30711   0.40721   0.03420   0.12311  Uiso   1.00
N433   N     0.26391   0.40677   0.02682   0.12311  Uiso   1.00
N434   N     0.26276   0.42838   0.23314   0.12311  Uiso   1.00
H435   H     0.33362   0.30718   0.11959   0.12311  Uiso   0.00
C436   C     0.34798   0.28174   0.08448   0.12311  Uiso   1.00
C437   C     0.34983   0.31671   0.15517   0.12311  Uiso   1.00
C438   C     0.34102   0.30333   0.11971   0.12311  Uiso   1.00
C439   C     0.32622   0.31104   0.11948   0.12311  Uiso   1.00
C440   C     0.30418   0.28368   0.09631   0.12311  Uiso   1.00
C441   C     0.31789   0.28221   0.09080   0.12311  Uiso   1.00
N442   N     0.36109   0.28177   0.09818   0.12311  Uiso   1.00
N443   N     0.36224   0.30338   0.14186   0.12311  Uiso   1.00
H444   H     0.45862   0.43218   0.11959   0.12311  Uiso   0.00
C445   C     0.47298   0.40674   0.08448   0.12311  Uiso   1.00
C446   C     0.47483   0.44171   0.15517   0.12311  Uiso   1.00
C447   C     0.46602   0.42833   0.11971   0.12311  Uiso   1.00
C448   C     0.45122   0.43604   0.11948   0.12311  Uiso   1.00
C449   C     0.42918   0.40868   0.09631   0.12311  Uiso   1.00
C450   C     0.44289   0.40721   0.09080   0.12311  Uiso   1.00
N451   N     0.48609   0.40677   0.09818   0.12311  Uiso   1.00
N452   N     0.48724   0.42838   0.14186   0.12311  Uiso   1.00
Fe453  Fe    0.25000   0.36461   0.06250   0.12311  Uiso   1.00
Fe454  Fe    0.37500   0.48961   0.06250   0.12311  Uiso   1.00
Fe455  Fe    0.25000   0.38539   0.18750   0.12311  Uiso   1.00
Fe456  Fe    0.37500   0.26039   0.18750   0.12311  Uiso   1.00
H457   H     0.58362   0.44282   0.24459   0.12311  Uiso   0.00
C458   C     0.59798   0.46826   0.20948   0.12311  Uiso   1.00
C459   C     0.59983   0.43329   0.03017   0.12311  Uiso   1.00
C460   C     0.59102   0.44667   0.24471   0.12311  Uiso   1.00
C461   C     0.57622   0.43896   0.24448   0.12311  Uiso   1.00
C462   C     0.55418   0.46632   0.22131   0.12311  Uiso   1.00
C463   C     0.56789   0.46779   0.21580   0.12311  Uiso   1.00
N464   N     0.61109   0.46823   0.22318   0.12311  Uiso   1.00
N465   N     0.61224   0.44662   0.01686   0.12311  Uiso   1.00
H466   H     0.70862   0.31782   0.24459   0.12311  Uiso   0.00
C467   C     0.72298   0.34326   0.20948   0.12311  Uiso   1.00
C468   C     0.72483   0.30829   0.03017   0.12311  Uiso   1.00
C469   C     0.71602   0.32167   0.24471   0.12311  Uiso   1.00
C470   C     0.70122   0.31396   0.24448   0.12311  Uiso   1.00
C471   C     0.67918   0.34132   0.22131   0.12311  Uiso   1.00
C472   C     0.69289   0.34279   0.21580   0.12311  Uiso   1.00
N473   N     0.73609   0.34323   0.22318   0.12311  Uiso   1.00
N474   N     0.73724   0.32162   0.01686   0.12311  Uiso   1.00
H475   H     0.66638   0.44282   0.13041   0.12311  Uiso   0.00
C476   C     0.65202   0.46826   0.16552   0.12311  Uiso   1.00
C477   C     0.65017   0.43329   0.09483   0.12311  Uiso   1.00
C478   C     0.65898   0.44667   0.13029   0.12311  Uiso   1.00
C479   C     0.67378   0.43896   0.13052   0.12311  Uiso   1.00
C480   C     0.69582   0.46632   0.15369   0.12311  Uiso   1.00
C481   C     0.68211   0.46779   0.15920   0.12311  Uiso   1.00
N482   N     0.63891   0.46823   0.15182   0.12311  Uiso   1.00
N483   N     0.63776   0.44662   0.10814   0.12311  Uiso   1.00
H484   H     0.54138   0.31782   0.13041   0.12311  Uiso   0.00
C485   C     0.52702   0.34326   0.16552   0.12311  Uiso   1.00
C486   C     0.52517   0.30829   0.09483   0.12311  Uiso   1.00
C487   C     0.53398   0.32167   0.13029   0.12311  Uiso   1.00
C488   C     0.54878   0.31396   0.13052   0.12311  Uiso   1.00
C489   C     0.57082   0.34132   0.15369   0.12311  Uiso   1.00
C490   C     0.55711   0.34279   0.15920   0.12311  Uiso   1.00
N491   N     0.51391   0.34323   0.15182   0.12311  Uiso   1.00
N492   N     0.51276   0.32162   0.10814   0.12311  Uiso   1.00
H493   H     0.66638   0.30718   0.00541   0.12311  Uiso   0.00
C494   C     0.65202   0.28174   0.04052   0.12311  Uiso   1.00
C495   C     0.65017   0.31671   0.21983   0.12311  Uiso   1.00
C496   C     0.65898   0.30333   0.00529   0.12311  Uiso   1.00
C497   C     0.67378   0.31104   0.00552   0.12311  Uiso   1.00
C498   C     0.69582   0.28368   0.02869   0.12311  Uiso   1.00
C499   C     0.68211   0.28221   0.03420   0.12311  Uiso   1.00
N500   N     0.63891   0.28177   0.02682   0.12311  Uiso   1.00
N501   N     0.63776   0.30338   0.23314   0.12311  Uiso   1.00
H502   H     0.54138   0.43218   0.00541   0.12311  Uiso   0.00
C503   C     0.52702   0.40674   0.04052   0.12311  Uiso   1.00
C504   C     0.52517   0.44171   0.21983   0.12311  Uiso   1.00
C505   C     0.53398   0.42833   0.00529   0.12311  Uiso   1.00
C506   C     0.54878   0.43604   0.00552   0.12311  Uiso   1.00
C507   C     0.57082   0.40868   0.02869   0.12311  Uiso   1.00
C508   C     0.55711   0.40721   0.03420   0.12311  Uiso   1.00
N509   N     0.51391   0.40677   0.02682   0.12311  Uiso   1.00
N510   N     0.51276   0.42838   0.23314   0.12311  Uiso   1.00
H511   H     0.58362   0.30718   0.11959   0.12311  Uiso   0.00
C512   C     0.59798   0.28174   0.08448   0.12311  Uiso   1.00
C513   C     0.59983   0.31671   0.15517   0.12311  Uiso   1.00
C514   C     0.59102   0.30333   0.11971   0.12311  Uiso   1.00
C515   C     0.57622   0.31104   0.11948   0.12311  Uiso   1.00
C516   C     0.55418   0.28368   0.09631   0.12311  Uiso   1.00
C517   C     0.56789   0.28221   0.09080   0.12311  Uiso   1.00
N518   N     0.61109   0.28177   0.09818   0.12311  Uiso   1.00
N519   N     0.61224   0.30338   0.14186   0.12311  Uiso   1.00
H520   H     0.70862   0.43218   0.11959   0.12311  Uiso   0.00
C521   C     0.72298   0.40674   0.08448   0.12311  Uiso   1.00
C522   C     0.72483   0.44171   0.15517   0.12311  Uiso   1.00
C523   C     0.71602   0.42833   0.11971   0.12311  Uiso   1.00
C524   C     0.70122   0.43604   0.11948   0.12311  Uiso   1.00
C525   C     0.67918   0.40868   0.09631   0.12311  Uiso   1.00
C526   C     0.69289   0.40721   0.09080   0.12311  Uiso   1.00
N527   N     0.73609   0.40677   0.09818   0.12311  Uiso   1.00
N528   N     0.73724   0.42838   0.14186   0.12311  Uiso   1.00
Fe529  Fe    0.50000   0.36461   0.06250   0.12311  Uiso   1.00
Fe530  Fe    0.62500   0.48961   0.06250   0.12311  Uiso   1.00
Fe531  Fe    0.50000   0.38539   0.18750   0.12311  Uiso   1.00
Fe532  Fe    0.62500   0.26039   0.18750   0.12311  Uiso   1.00
H533   H     0.83362   0.44282   0.24459   0.12311  Uiso   0.00
C534   C     0.84798   0.46826   0.20948   0.12311  Uiso   1.00
C535   C     0.84983   0.43329   0.03017   0.12311  Uiso   1.00
C536   C     0.84102   0.44667   0.24471   0.12311  Uiso   1.00
C537   C     0.82622   0.43896   0.24448   0.12311  Uiso   1.00
C538   C     0.80418   0.46632   0.22131   0.12311  Uiso   1.00
C539   C     0.81789   0.46779   0.21580   0.12311  Uiso   1.00
N540   N     0.86109   0.46823   0.22318   0.12311  Uiso   1.00
N541   N     0.86224   0.44662   0.01686   0.12311  Uiso   1.00
H542   H     0.95862   0.31782   0.24459   0.12311  Uiso   0.00
C543   C     0.97298   0.34326   0.20948   0.12311  Uiso   1.00
C544   C     0.97483   0.30829   0.03017   0.12311  Uiso   1.00
C545   C     0.96602   0.32167   0.24471   0.12311  Uiso   1.00
C546   C     0.95122   0.31396   0.24448   0.12311  Uiso   1.00
C547   C     0.92918   0.34132   0.22131   0.12311  Uiso   1.00
C548   C     0.94289   0.34279   0.21580   0.12311  Uiso   1.00
N549   N     0.98609   0.34323   0.22318   0.12311  Uiso   1.00
N550   N     0.98724   0.32162   0.01686   0.12311  Uiso   1.00
H551   H     0.91638   0.44282   0.13041   0.12311  Uiso   0.00
C552   C     0.90202   0.46826   0.16552   0.12311  Uiso   1.00
C553   C     0.90017   0.43329   0.09483   0.12311  Uiso   1.00
C554   C     0.90898   0.44667   0.13029   0.12311  Uiso   1.00
C555   C     0.92378   0.43896   0.13052   0.12311  Uiso   1.00
C556   C     0.94582   0.46632   0.15369   0.12311  Uiso   1.00
C557   C     0.93211   0.46779   0.15920   0.12311  Uiso   1.00
N558   N     0.88891   0.46823   0.15182   0.12311  Uiso   1.00
N559   N     0.88776   0.44662   0.10814   0.12311  Uiso   1.00
H560   H     0.79138   0.31782   0.13041   0.12311  Uiso   0.00
C561   C     0.77702   0.34326   0.16552   0.12311  Uiso   1.00
C562   C     0.77517   0.30829   0.09483   0.12311  Uiso   1.00
C563   C     0.78398   0.32167   0.13029   0.12311  Uiso   1.00
C564   C     0.79878   0.31396   0.13052   0.12311  Uiso   1.00
C565   C     0.82082   0.34132   0.15369   0.12311  Uiso   1.00
C566   C     0.80711   0.34279   0.15920   0.12311  Uiso   1.00
N567   N     0.76391   0.34323   0.15182   0.12311  Uiso   1.00
N568   N     0.76276   0.32162   0.10814   0.12311  Uiso   1.00
H569   H     0.91638   0.30718   0.00541   0.12311  Uiso   0.00
C570   C     0.90202   0.28174   0.04052   0.12311  Uiso   1.00
C571   C     0.90017   0.31671   0.21983   0.12311  Uiso   1.00
C572   C     0.90898   0.30333   0.00529   0.12311  Uiso   1.00
C573   C     0.92378   0.31104   0.00552   0.12311  Uiso   1.00
C574   C     0.94582   0.28368   0.02869   0.12311  Uiso   1.00
C575   C     0.93211   0.28221   0.03420   0.12311  Uiso   1.00
N576   N     0.88891   0.28177   0.02682   0.12311  Uiso   1.00
N577   N     0.88776   0.30338   0.23314   0.12311  Uiso   1.00
H578   H     0.79138   0.43218   0.00541   0.12311  Uiso   0.00
C579   C     0.77702   0.40674   0.04052   0.12311  Uiso   1.00
C580   C     0.77517   0.44171   0.21983   0.12311  Uiso   1.00
C581   C     0.78398   0.42833   0.00529   0.12311  Uiso   1.00
C582   C     0.79878   0.43604   0.00552   0.12311  Uiso   1.00
C583   C     0.82082   0.40868   0.02869   0.12311  Uiso   1.00
C584   C     0.80711   0.40721   0.03420   0.12311  Uiso   1.00
N585   N     0.76391   0.40677   0.02682   0.12311  Uiso   1.00
N586   N     0.76276   0.42838   0.23314   0.12311  Uiso   1.00
H587   H     0.83362   0.30718   0.11959   0.12311  Uiso   0.00
C588   C     0.84798   0.28174   0.08448   0.12311  Uiso   1.00
C589   C     0.84983   0.31671   0.15517   0.12311  Uiso   1.00
C590   C     0.84102   0.30333   0.11971   0.12311  Uiso   1.00
C591   C     0.82622   0.31104   0.11948   0.12311  Uiso   1.00
C592   C     0.80418   0.28368   0.09631   0.12311  Uiso   1.00
C593   C     0.81789   0.28221   0.09080   0.12311  Uiso   1.00
N594   N     0.86109   0.28177   0.09818   0.12311  Uiso   1.00
N595   N     0.86224   0.30338   0.14186   0.12311  Uiso   1.00
H596   H     0.95862   0.43218   0.11959   0.12311  Uiso   0.00
C597   C     0.97298   0.40674   0.08448   0.12311  Uiso   1.00
C598   C     0.97483   0.44171   0.15517   0.12311  Uiso   1.00
C599   C     0.96602   0.42833   0.11971   0.12311  Uiso   1.00
C600   C     0.95122   0.43604   0.11948   0.12311  Uiso   1.00
C601   C     0.92918   0.40868   0.09631   0.12311  Uiso   1.00
C602   C     0.94289   0.40721   0.09080   0.12311  Uiso   1.00
N603   N     0.98609   0.40677   0.09818   0.12311  Uiso   1.00
N604   N     0.98724   0.42838   0.14186   0.12311  Uiso   1.00
Fe605  Fe    0.75000   0.36461   0.06250   0.12311  Uiso   1.00
Fe606  Fe    0.87500   0.48961   0.06250   0.12311  Uiso   1.00
Fe607  Fe    0.75000   0.38539   0.18750   0.12311  Uiso   1.00
Fe608  Fe    0.87500   0.26039   0.18750   0.12311  Uiso   1.00
H609   H     0.08362   0.69282   0.24459   0.12311  Uiso   0.00
C610   C     0.09798   0.71826   0.20948   0.12311  Uiso   1.00
C611   C     0.09983   0.68329   0.03017   0.12311  Uiso   1.00
C612   C     0.09102   0.69667   0.24471   0.12311  Uiso   1.00
C613   C     0.07622   0.68896   0.24448   0.12311  Uiso   1.00
C614   C     0.05418   0.71632   0.22131   0.12311  Uiso   1.00
C615   C     0.06789   0.71779   0.21580   0.12311  Uiso   1.00
N616   N     0.11109   0.71823   0.22318   0.12311  Uiso   1.00
N617   N     0.11224   0.69662   0.01686   0.12311  Uiso   1.00
H618   H     0.20862   0.56782   0.24459   0.12311  Uiso   0.00
C619   C     0.22298   0.59326   0.20948   0.12311  Uiso   1.00
C620   C     0.22483   0.55829   0.03017   0.12311  Uiso   1.00
C621   C     0.21602   0.57167   0.24471   0.12311  Uiso   1.00
C622   C     0.20122   0.56396   0.24448   0.12311  Uiso   1.00
C623   C     0.17918   0.59132   0.22131   0.12311  Uiso   1.00
C624   C     0.19289   0.59279   0.21580   0.12311  Uiso   1.00
N625   N     0.23609   0.59323   0.22318   0.12311  Uiso   1.00
N626   N     0.23724   0.57162   0.01686   0.12311  Uiso   1.00
H627   H     0.16638   0.69282   0.13041   0.12311  Uiso   0.00
C628   C     0.15202   0.71826   0.16552   0.12311  Uiso   1.00
C629   C     0.15017   0.68329   0.09483   0.12311  Uiso   1.00
C630   C     0.15898   0.69667   0.13029   0.12311  Uiso   1.00
C631   C     0.17378   0.68896   0.13052   0.12311  Uiso   1.00
C632   C     0.19582   0.71632   0.15369   0.12311  Uiso   1.00
C633   C     0.18211   0.71779   0.15920   0.12311  Uiso   1.00
N634   N     0.13891   0.71823   0.15182   0.12311  Uiso   1.00
N635   N     0.13776   0.69662   0.10814   0.12311  Uiso   1.00
H636   H     0.04138   0.56782   0.13041   0.12311  Uiso   0.00
C637   C     0.02702   0.59326   0.16552   0.12311  Uiso   1.00
C638   C     0.02517   0.55829   0.09483   0.12311  Uiso   1.00
C639   C     0.03398   0.57167   0.13029   0.12311  Uiso   1.00
C640   C     0.04878   0.56396   0.13052   0.12311  Uiso   1.00
C641   C     0.07082   0.59132   0.15369   0.12311  Uiso   1.00
C642   C     0.05711   0.59279   0.15920   0.12311  Uiso   1.00
N643   N     0.01391   0.59323   0.15182   0.12311  Uiso   1.00
N644   N     0.01276   0.57162   0.10814   0.12311  Uiso   1.00
H645   H     0.16638   0.55718   0.00541   0.12311  Uiso   0.00
C646   C     0.15202   0.53174   0.04052   0.12311  Uiso   1.00
C647   C     0.15017   0.56671   0.21983   0.12311  Uiso   1.00
C648   C     0.15898   0.55333   0.00529   0.12311  Uiso   1.00
C649   C     0.17378   0.56104   0.00552   0.12311  Uiso   1.00
C650   C     0.19582   0.53368   0.02869   0.12311  Uiso   1.00
C651   C     0.18211   0.53221   0.03420   0.12311  Uiso   1.00
N652   N     0.13891   0.53177   0.02682   0.12311  Uiso   1.00
N653   N     0.13776   0.55338   0.23314   0.12311  Uiso   1.00
H654   H     0.04138   0.68218   0.00541   0.12311  Uiso   0.00
C655   C     0.02702   0.65674   0.04052   0.12311  Uiso   1.00
C656   C     0.02517   0.69171   0.21983   0.12311  Uiso   1.00
C657   C     0.03398   0.67833   0.00529   0.12311  Uiso   1.00
C658   C     0.04878   0.68604   0.00552   0.12311  Uiso   1.00
C659   C     0.07082   0.65868   0.02869   0.12311  Uiso   1.00
C660   C     0.05711   0.65721   0.03420   0.12311  Uiso   1.00
N661   N     0.01391   0.65677   0.02682   0.12311  Uiso   1.00
N662   N     0.01276   0.67838   0.23314   0.12311  Uiso   1.00
H663   H     0.08362   0.55718   0.11959   0.12311  Uiso   0.00
C664   C     0.09798   0.53174   0.08448   0.12311  Uiso   1.00
C665   C     0.09983   0.56671   0.15517   0.12311  Uiso   1.00
C666   C     0.09102   0.55333   0.11971   0.12311  Uiso   1.00
C667   C     0.07622   0.56104   0.11948   0.12311  Uiso   1.00
C668   C     0.05418   0.53368   0.09631   0.12311  Uiso   1.00
C669   C     0.06789   0.53221   0.09080   0.12311  Uiso   1.00
N670   N     0.11109   0.53177   0.09818   0.12311  Uiso   1.00
N671   N     0.11224   0.55338   0.14186   0.12311  Uiso   1.00
H672   H     0.20862   0.68218   0.11959   0.12311  Uiso   0.00
C673   C     0.22298   0.65674   0.08448   0.12311  Uiso   1.00
C674   C     0.22483   0.69171   0.15517   0.12311  Uiso   1.00
C675   C     0.21602   0.67833   0.11971   0.12311  Uiso   1.00
C676   C     0.20122   0.68604   0.11948   0.12311  Uiso   1.00
C677   C     0.17918   0.65868   0.09631   0.12311  Uiso   1.00
C678   C     0.19289   0.65721   0.09080   0.12311  Uiso   1.00
N679   N     0.23609   0.65677   0.09818   0.12311  Uiso   1.00
N680   N     0.23724   0.67838   0.14186   0.12311  Uiso   1.00
Fe681  Fe    0.00000   0.61461   0.06250   0.12311  Uiso   1.00
Fe682  Fe    0.12500   0.73961   0.06250   0.12311  Uiso   1.00
Fe683  Fe    0.00000   0.63539   0.18750   0.12311  Uiso   1.00
Fe684  Fe    0.12500   0.51039   0.18750   0.12311  Uiso   1.00
H685   H     0.33362   0.69282   0.24459   0.12311  Uiso   0.00
C686   C     0.34798   0.71826   0.20948   0.12311  Uiso   1.00
C687   C     0.34983   0.68329   0.03017   0.12311  Uiso   1.00
C688   C     0.34102   0.69667   0.24471   0.12311  Uiso   1.00
C689   C     0.32622   0.68896   0.24448   0.12311  Uiso   1.00
C690   C     0.30418   0.71632   0.22131   0.12311  Uiso   1.00
C691   C     0.31789   0.71779   0.21580   0.12311  Uiso   1.00
N692   N     0.36109   0.71823   0.22318   0.12311  Uiso   1.00
N693   N     0.36224   0.69662   0.01686   0.12311  Uiso   1.00
H694   H     0.45862   0.56782   0.24459   0.12311  Uiso   0.00
C695   C     0.47298   0.59326   0.20948   0.12311  Uiso   1.00
C696   C     0.47483   0.55829   0.03017   0.12311  Uiso   1.00
C697   C     0.46602   0.57167   0.24471   0.12311  Uiso   1.00
C698   C     0.45122   0.56396   0.24448   0.12311  Uiso   1.00
C699   C     0.42918   0.59132   0.22131   0.12311  Uiso   1.00
C700   C     0.44289   0.59279   0.21580   0.12311  Uiso   1.00
N701   N     0.48609   0.59323   0.22318   0.12311  Uiso   1.00
N702   N     0.48724   0.57162   0.01686   0.12311  Uiso   1.00
H703   H     0.41638   0.69282   0.13041   0.12311  Uiso   0.00
C704   C     0.40202   0.71826   0.16552   0.12311  Uiso   1.00
C705   C     0.40017   0.68329   0.09483   0.12311  Uiso   1.00
C706   C     0.40898   0.69667   0.13029   0.12311  Uiso   1.00
C707   C     0.42378   0.68896   0.13052   0.12311  Uiso   1.00
C708   C     0.44582   0.71632   0.15369   0.12311  Uiso   1.00
C709   C     0.43211   0.71779   0.15920   0.12311  Uiso   1.00
N710   N     0.38891   0.71823   0.15182   0.12311  Uiso   1.00
N711   N     0.38776   0.69662   0.10814   0.12311  Uiso   1.00
H712   H     0.29138   0.56782   0.13041   0.12311  Uiso   0.00
C713   C     0.27702   0.59326   0.16552   0.12311  Uiso   1.00
C714   C     0.27517   0.55829   0.09483   0.12311  Uiso   1.00
C715   C     0.28398   0.57167   0.13029   0.12311  Uiso   1.00
C716   C     0.29878   0.56396   0.13052   0.12311  Uiso   1.00
C717   C     0.32082   0.59132   0.15369   0.12311  Uiso   1.00
C718   C     0.30711   0.59279   0.15920   0.12311  Uiso   1.00
N719   N     0.26391   0.59323   0.15182   0.12311  Uiso   1.00
N720   N     0.26276   0.57162   0.10814   0.12311  Uiso   1.00
H721   H     0.41638   0.55718   0.00541   0.12311  Uiso   0.00
C722   C     0.40202   0.53174   0.04052   0.12311  Uiso   1.00
C723   C     0.40017   0.56671   0.21983   0.12311  Uiso   1.00
C724   C     0.40898   0.55333   0.00529   0.12311  Uiso   1.00
C725   C     0.42378   0.56104   0.00552   0.12311  Uiso   1.00
C726   C     0.44582   0.53368   0.02869   0.12311  Uiso   1.00
C727   C     0.43211   0.53221   0.03420   0.12311  Uiso   1.00
N728   N     0.38891   0.53177   0.02682   0.12311  Uiso   1.00
N729   N     0.38776   0.55338   0.23314   0.12311  Uiso   1.00
H730   H     0.29138   0.68218   0.00541   0.12311  Uiso   0.00
C731   C     0.27702   0.65674   0.04052   0.12311  Uiso   1.00
C732   C     0.27517   0.69171   0.21983   0.12311  Uiso   1.00
C733   C     0.28398   0.67833   0.00529   0.12311  Uiso   1.00
C734   C     0.29878   0.68604   0.00552   0.12311  Uiso   1.00
C735   C     0.32082   0.65868   0.02869   0.12311  Uiso   1.00
C736   C     0.30711   0.65721   0.03420   0.12311  Uiso   1.00
N737   N     0.26391   0.65677   0.02682   0.12311  Uiso   1.00
N738   N     0.26276   0.67838   0.23314   0.12311  Uiso   1.00
H739   H     0.33362   0.55718   0.11959   0.12311  Uiso   0.00
C740   C     0.34798   0.53174   0.08448   0.12311  Uiso   1.00
C741   C     0.34983   0.56671   0.15517   0.12311  Uiso   1.00
C742   C     0.34102   0.55333   0.11971   0.12311  Uiso   1.00
C743   C     0.32622   0.56104   0.11948   0.12311  Uiso   1.00
C744   C     0.30418   0.53368   0.09631   0.12311  Uiso   1.00
C745   C     0.31789   0.53221   0.09080   0.12311  Uiso   1.00
N746   N     0.36109   0.53177   0.09818   0.12311  Uiso   1.00
N747   N     0.36224   0.55338   0.14186   0.12311  Uiso   1.00
H748   H     0.45862   0.68218   0.11959   0.12311  Uiso   0.00
C749   C     0.47298   0.65674   0.08448   0.12311  Uiso   1.00
C750   C     0.47483   0.69171   0.15517   0.12311  Uiso   1.00
C751   C     0.46602   0.67833   0.11971   0.12311  Uiso   1.00
C752   C     0.45122   0.68604   0.11948   0.12311  Uiso   1.00
C753   C     0.42918   0.65868   0.09631   0.12311  Uiso   1.00
C754   C     0.44289   0.65721   0.09080   0.12311  Uiso   1.00
N755   N     0.48609   0.65677   0.09818   0.12311  Uiso   1.00
N756   N     0.48724   0.67838   0.14186   0.12311  Uiso   1.00
Fe757  Fe    0.25000   0.61461   0.06250   0.12311  Uiso   1.00
Fe758  Fe    0.37500   0.73961   0.06250   0.12311  Uiso   1.00
Fe759  Fe    0.25000   0.63539   0.18750   0.12311  Uiso   1.00
Fe760  Fe    0.37500   0.51039   0.18750   0.12311  Uiso   1.00
H761   H     0.58362   0.69282   0.24459   0.12311  Uiso   0.00
C762   C     0.59798   0.71826   0.20948   0.12311  Uiso   1.00
C763   C     0.59983   0.68329   0.03017   0.12311  Uiso   1.00
C764   C     0.59102   0.69667   0.24471   0.12311  Uiso   1.00
C765   C     0.57622   0.68896   0.24448   0.12311  Uiso   1.00
C766   C     0.55418   0.71632   0.22131   0.12311  Uiso   1.00
C767   C     0.56789   0.71779   0.21580   0.12311  Uiso   1.00
N768   N     0.61109   0.71823   0.22318   0.12311  Uiso   1.00
N769   N     0.61224   0.69662   0.01686   0.12311  Uiso   1.00
H770   H     0.70862   0.56782   0.24459   0.12311  Uiso   0.00
C771   C     0.72298   0.59326   0.20948   0.12311  Uiso   1.00
C772   C     0.72483   0.55829   0.03017   0.12311  Uiso   1.00
C773   C     0.71602   0.57167   0.24471   0.12311  Uiso   1.00
C774   C     0.70122   0.56396   0.24448   0.12311  Uiso   1.00
C775   C     0.67918   0.59132   0.22131   0.12311  Uiso   1.00
C776   C     0.69289   0.59279   0.21580   0.12311  Uiso   1.00
N777   N     0.73609   0.59323   0.22318   0.12311  Uiso   1.00
N778   N     0.73724   0.57162   0.01686   0.12311  Uiso   1.00
H779   H     0.66638   0.69282   0.13041   0.12311  Uiso   0.00
C780   C     0.65202   0.71826   0.16552   0.12311  Uiso   1.00
C781   C     0.65017   0.68329   0.09483   0.12311  Uiso   1.00
C782   C     0.65898   0.69667   0.13029   0.12311  Uiso   1.00
C783   C     0.67378   0.68896   0.13052   0.12311  Uiso   1.00
C784   C     0.69582   0.71632   0.15369   0.12311  Uiso   1.00
C785   C     0.68211   0.71779   0.15920   0.12311  Uiso   1.00
N786   N     0.63891   0.71823   0.15182   0.12311  Uiso   1.00
N787   N     0.63776   0.69662   0.10814   0.12311  Uiso   1.00
H788   H     0.54138   0.56782   0.13041   0.12311  Uiso   0.00
C789   C     0.52702   0.59326   0.16552   0.12311  Uiso   1.00
C790   C     0.52517   0.55829   0.09483   0.12311  Uiso   1.00
C791   C     0.53398   0.57167   0.13029   0.12311  Uiso   1.00
C792   C     0.54878   0.56396   0.13052   0.12311  Uiso   1.00
C793   C     0.57082   0.59132   0.15369   0.12311  Uiso   1.00
C794   C     0.55711   0.59279   0.15920   0.12311  Uiso   1.00
N795   N     0.51391   0.59323   0.15182   0.12311  Uiso   1.00
N796   N     0.51276   0.57162   0.10814   0.12311  Uiso   1.00
H797   H     0.66638   0.55718   0.00541   0.12311  Uiso   0.00
C798   C     0.65202   0.53174   0.04052   0.12311  Uiso   1.00
C799   C     0.65017   0.56671   0.21983   0.12311  Uiso   1.00
C800   C     0.65898   0.55333   0.00529   0.12311  Uiso   1.00
C801   C     0.67378   0.56104   0.00552   0.12311  Uiso   1.00
C802   C     0.69582   0.53368   0.02869   0.12311  Uiso   1.00
C803   C     0.68211   0.53221   0.03420   0.12311  Uiso   1.00
N804   N     0.63891   0.53177   0.02682   0.12311  Uiso   1.00
N805   N     0.63776   0.55338   0.23314   0.12311  Uiso   1.00
H806   H     0.54138   0.68218   0.00541   0.12311  Uiso   0.00
C807   C     0.52702   0.65674   0.04052   0.12311  Uiso   1.00
C808   C     0.52517   0.69171   0.21983   0.12311  Uiso   1.00
C809   C     0.53398   0.67833   0.00529   0.12311  Uiso   1.00
C810   C     0.54878   0.68604   0.00552   0.12311  Uiso   1.00
C811   C     0.57082   0.65868   0.02869   0.12311  Uiso   1.00
C812   C     0.55711   0.65721   0.03420   0.12311  Uiso   1.00
N813   N     0.51391   0.65677   0.02682   0.12311  Uiso   1.00
N814   N     0.51276   0.67838   0.23314   0.12311  Uiso   1.00
H815   H     0.58362   0.55718   0.11959   0.12311  Uiso   0.00
C816   C     0.59798   0.53174   0.08448   0.12311  Uiso   1.00
C817   C     0.59983   0.56671   0.15517   0.12311  Uiso   1.00
C818   C     0.59102   0.55333   0.11971   0.12311  Uiso   1.00
C819   C     0.57622   0.56104   0.11948   0.12311  Uiso   1.00
C820   C     0.55418   0.53368   0.09631   0.12311  Uiso   1.00
C821   C     0.56789   0.53221   0.09080   0.12311  Uiso   1.00
N822   N     0.61109   0.53177   0.09818   0.12311  Uiso   1.00
N823   N     0.61224   0.55338   0.14186   0.12311  Uiso   1.00
H824   H     0.70862   0.68218   0.11959   0.12311  Uiso   0.00
C825   C     0.72298   0.65674   0.08448   0.12311  Uiso   1.00
C826   C     0.72483   0.69171   0.15517   0.12311  Uiso   1.00
C827   C     0.71602   0.67833   0.11971   0.12311  Uiso   1.00
C828   C     0.70122   0.68604   0.11948   0.12311  Uiso   1.00
C829   C     0.67918   0.65868   0.09631   0.12311  Uiso   1.00
C830   C     0.69289   0.65721   0.09080   0.12311  Uiso   1.00
N831   N     0.73609   0.65677   0.09818   0.12311  Uiso   1.00
N832   N     0.73724   0.67838   0.14186   0.12311  Uiso   1.00
Fe833  Fe    0.50000   0.61461   0.06250   0.12311  Uiso   1.00
Fe834  Fe    0.62500   0.73961   0.06250   0.12311  Uiso   1.00
Fe835  Fe    0.50000   0.63539   0.18750   0.12311  Uiso   1.00
Fe836  Fe    0.62500   0.51039   0.18750   0.12311  Uiso   1.00
H837   H     0.83362   0.69282   0.24459   0.12311  Uiso   0.00
C838   C     0.84798   0.71826   0.20948   0.12311  Uiso   1.00
C839   C     0.84983   0.68329   0.03017   0.12311  Uiso   1.00
C840   C     0.84102   0.69667   0.24471   0.12311  Uiso   1.00
C841   C     0.82622   0.68896   0.24448   0.12311  Uiso   1.00
C842   C     0.80418   0.71632   0.22131   0.12311  Uiso   1.00
C843   C     0.81789   0.71779   0.21580   0.12311  Uiso   1.00
N844   N     0.86109   0.71823   0.22318   0.12311  Uiso   1.00
N845   N     0.86224   0.69662   0.01686   0.12311  Uiso   1.00
H846   H     0.95862   0.56782   0.24459   0.12311  Uiso   0.00
C847   C     0.97298   0.59326   0.20948   0.12311  Uiso   1.00
C848   C     0.97483   0.55829   0.03017   0.12311  Uiso   1.00
C849   C     0.96602   0.57167   0.24471   0.12311  Uiso   1.00
C850   C     0.95122   0.56396   0.24448   0.12311  Uiso   1.00
C851   C     0.92918   0.59132   0.22131   0.12311  Uiso   1.00
C852   C     0.94289   0.59279   0.21580   0.12311  Uiso   1.00
N853   N     0.98609   0.59323   0.22318   0.12311  Uiso   1.00
N854   N     0.98724   0.57162   0.01686   0.12311  Uiso   1.00
H855   H     0.91638   0.69282   0.13041   0.12311  Uiso   0.00
C856   C     0.90202   0.71826   0.16552   0.12311  Uiso   1.00
C857   C     0.90017   0.68329   0.09483   0.12311  Uiso   1.00
C858   C     0.90898   0.69667   0.13029   0.12311  Uiso   1.00
C859   C     0.92378   0.68896   0.13052   0.12311  Uiso   1.00
C860   C     0.94582   0.71632   0.15369   0.12311  Uiso   1.00
C861   C     0.93211   0.71779   0.15920   0.12311  Uiso   1.00
N862   N     0.88891   0.71823   0.15182   0.12311  Uiso   1.00
N863   N     0.88776   0.69662   0.10814   0.12311  Uiso   1.00
H864   H     0.79138   0.56782   0.13041   0.12311  Uiso   0.00
C865   C     0.77702   0.59326   0.16552   0.12311  Uiso   1.00
C866   C     0.77517   0.55829   0.09483   0.12311  Uiso   1.00
C867   C     0.78398   0.57167   0.13029   0.12311  Uiso   1.00
C868   C     0.79878   0.56396   0.13052   0.12311  Uiso   1.00
C869   C     0.82082   0.59132   0.15369   0.12311  Uiso   1.00
C870   C     0.80711   0.59279   0.15920   0.12311  Uiso   1.00
N871   N     0.76391   0.59323   0.15182   0.12311  Uiso   1.00
N872   N     0.76276   0.57162   0.10814   0.12311  Uiso   1.00
H873   H     0.91638   0.55718   0.00541   0.12311  Uiso   0.00
C874   C     0.90202   0.53174   0.04052   0.12311  Uiso   1.00
C875   C     0.90017   0.56671   0.21983   0.12311  Uiso   1.00
C876   C     0.90898   0.55333   0.00529   0.12311  Uiso   1.00
C877   C     0.92378   0.56104   0.00552   0.12311  Uiso   1.00
C878   C     0.94582   0.53368   0.02869   0.12311  Uiso   1.00
C879   C     0.93211   0.53221   0.03420   0.12311  Uiso   1.00
N880   N     0.88891   0.53177   0.02682   0.12311  Uiso   1.00
N881   N     0.88776   0.55338   0.23314   0.12311  Uiso   1.00
H882   H     0.79138   0.68218   0.00541   0.12311  Uiso   0.00
C883   C     0.77702   0.65674   0.04052   0.12311  Uiso   1.00
C884   C     0.77517   0.69171   0.21983   0.12311  Uiso   1.00
C885   C     0.78398   0.67833   0.00529   0.12311  Uiso   1.00
C886   C     0.79878   0.68604   0.00552   0.12311  Uiso   1.00
C887   C     0.82082   0.65868   0.02869   0.12311  Uiso   1.00
C888   C     0.80711   0.65721   0.03420   0.12311  Uiso   1.00
N889   N     0.76391   0.65677   0.02682   0.12311  Uiso   1.00
N890   N     0.76276   0.67838   0.23314   0.12311  Uiso   1.00
H891   H     0.83362   0.55718   0.11959   0.12311  Uiso   0.00
C892   C     0.84798   0.53174   0.08448   0.12311  Uiso   1.00
C893   C     0.84983   0.56671   0.15517   0.12311  Uiso   1.00
C894   C     0.84102   0.55333   0.11971   0.12311  Uiso   1.00
C895   C     0.82622   0.56104   0.11948   0.12311  Uiso   1.00
C896   C     0.80418   0.53368   0.09631   0.12311  Uiso   1.00
C897   C     0.81789   0.53221   0.09080   0.12311  Uiso   1.00
N898   N     0.86109   0.53177   0.09818   0.12311  Uiso   1.00
N899   N     0.86224   0.55338   0.14186   0.12311  Uiso   1.00
H900   H     0.95862   0.68218   0.11959   0.12311  Uiso   0.00
C901   C     0.97298   0.65674   0.08448   0.12311  Uiso   1.00
C902   C     0.97483   0.69171   0.15517   0.12311  Uiso   1.00
C903   C     0.96602   0.67833   0.11971   0.12311  Uiso   1.00
C904   C     0.95122   0.68604   0.11948   0.12311  Uiso   1.00
C905   C     0.92918   0.65868   0.09631   0.12311  Uiso   1.00
C906   C     0.94289   0.65721   0.09080   0.12311  Uiso   1.00
N907   N     0.98609   0.65677   0.09818   0.12311  Uiso   1.00
N908   N     0.98724   0.67838   0.14186   0.12311  Uiso   1.00
Fe909  Fe    0.75000   0.61461   0.06250   0.12311  Uiso   1.00
Fe910  Fe    0.87500   0.73961   0.06250   0.12311  Uiso   1.00
Fe911  Fe    0.75000   0.63539   0.18750   0.12311  Uiso   1.00
Fe912  Fe    0.87500   0.51039   0.18750   0.12311  Uiso   1.00
H913   H     0.08362   0.94282   0.24459   0.12311  Uiso   0.00
C914   C     0.09798   0.96826   0.20948   0.12311  Uiso   1.00
C915   C     0.09983   0.93329   0.03017   0.12311  Uiso   1.00
C916   C     0.09102   0.94667   0.24471   0.12311  Uiso   1.00
C917   C     0.07622   0.93896   0.24448   0.12311  Uiso   1.00
C918   C     0.05418   0.96632   0.22131   0.12311  Uiso   1.00
C919   C     0.06789   0.96779   0.21580   0.12311  Uiso   1.00
N920   N     0.11109   0.96823   0.22318   0.12311  Uiso   1.00
N921   N     0.11224   0.94662   0.01686   0.12311  Uiso   1.00
H922   H     0.20862   0.81782   0.24459   0.12311  Uiso   0.00
C923   C     0.22298   0.84326   0.20948   0.12311  Uiso   1.00
C924   C     0.22483   0.80829   0.03017   0.12311  Uiso   1.00
C925   C     0.21602   0.82167   0.24471   0.12311  Uiso   1.00
C926   C     0.20122   0.81396   0.24448   0.12311  Uiso   1.00
C927   C     0.17918   0.84132   0.22131   0.12311  Uiso   1.00
C928   C     0.19289   0.84279   0.21580   0.12311  Uiso   1.00
N929   N     0.23609   0.84323   0.22318   0.12311  Uiso   1.00
N930   N     0.23724   0.82162   0.01686   0.12311  Uiso   1.00
H931   H     0.16638   0.94282   0.13041   0.12311  Uiso   0.00
C932   C     0.15202   0.96826   0.16552   0.12311  Uiso   1.00
C933   C     0.15017   0.93329   0.09483   0.12311  Uiso   1.00
C934   C     0.15898   0.94667   0.13029   0.12311  Uiso   1.00
C935   C     0.17378   0.93896   0.13052   0.12311  Uiso   1.00
C936   C     0.19582   0.96632   0.15369   0.12311  Uiso   1.00
C937   C     0.18211   0.96779   0.15920   0.12311  Uiso   1.00
N938   N     0.13891   0.96823   0.15182   0.12311  Uiso   1.00
N939   N     0.13776   0.94662   0.10814   0.12311  Uiso   1.00
H940   H     0.04138   0.81782   0.13041   0.12311  Uiso   0.00
C941   C     0.02702   0.84326   0.16552   0.12311  Uiso   1.00
C942   C     0.02517   0.80829   0.09483   0.12311  Uiso   1.00
C943   C     0.03398   0.82167   0.13029   0.12311  Uiso   1.00
C944   C     0.04878   0.81396   0.13052   0.12311  Uiso   1.00
C945   C     0.07082   0.84132   0.15369   0.12311  Uiso   1.00
C946   C     0.05711   0.84279   0.15920   0.12311  Uiso   1.00
N947   N     0.01391   0.84323   0.15182   0.12311  Uiso   1.00
N948   N     0.01276   0.82162   0.10814   0.12311  Uiso   1.00
H949   H     0.16638   0.80718   0.00541   0.12311  Uiso   0.00
C950   C     0.15202   0.78174   0.04052   0.12311  Uiso   1.00
C951   C     0.15017   0.81671   0.21983   0.12311  Uiso   1.00
C952   C     0.15898   0.80333   0.00529   0.12311  Uiso   1.00
C953   C     0.17378   0.81104   0.00552   0.12311  Uiso   1.00
C954   C     0.19582   0.78368   0.02869   0.12311  Uiso   1.00
C955   C     0.18211   0.78221   0.03420   0.12311  Uiso   1.00
N956   N     0.13891   0.78177   0.02682   0.12311  Uiso   1.00
N957   N     0.13776   0.80338   0.23314   0.12311  Uiso   1.00
H958   H     0.04138   0.93218   0.00541   0.12311  Uiso   0.00
C959   C     0.02702   0.90674   0.04052   0.12311  Uiso   1.00
C960   C     0.02517   0.94171   0.21983   0.12311  Uiso   1.00
C961   C     0.03398   0.92833   0.00529   0.12311  Uiso   1.00
C962   C     0.04878   0.93604   0.00552   0.12311  Uiso   1.00
C963   C     0.07082   0.90868   0.02869   0.12311  Uiso   1.00
C964   C     0.05711   0.90721   0.03420   0.12311  Uiso   1.00
N965   N     0.01391   0.90677   0.02682   0.12311  Uiso   1.00
N966   N     0.01276   0.92838   0.23314   0.12311  Uiso   1.00
H967   H     0.08362   0.80718   0.11959   0.12311  Uiso   0.00
C968   C     0.09798   0.78174   0.08448   0.12311  Uiso   1.00
C969   C     0.09983   0.81671   0.15517   0.12311  Uiso   1.00
C970   C     0.09102   0.80333   0.11971   0.12311  Uiso   1.00
C971   C     0.07622   0.81104   0.11948   0.12311  Uiso   1.00
C972   C     0.05418   0.78368   0.09631   0.12311  Uiso   1.00
C973   C     0.06789   0.78221   0.09080   0.12311  Uiso   1.00
N974   N     0.11109   0.78177   0.09818   0.12311  Uiso   1.00
N975   N     0.11224   0.80338   0.14186   0.12311  Uiso   1.00
H976   H     0.20862   0.93218   0.11959   0.12311  Uiso   0.00
C977   C     0.22298   0.90674   0.08448   0.12311  Uiso   1.00
C978   C     0.22483   0.94171   0.15517   0.12311  Uiso   1.00
C979   C     0.21602   0.92833   0.11971   0.12311  Uiso   1.00
C980   C     0.20122   0.93604   0.11948   0.12311  Uiso   1.00
C981   C     0.17918   0.90868   0.09631   0.12311  Uiso   1.00
C982   C     0.19289   0.90721   0.09080   0.12311  Uiso   1.00
N983   N     0.23609   0.90677   0.09818   0.12311  Uiso   1.00
N984   N     0.23724   0.92838   0.14186   0.12311  Uiso   1.00
Fe985  Fe    0.00000   0.86461   0.06250   0.12311  Uiso   1.00
Fe986  Fe    0.12500   0.98961   0.06250   0.12311  Uiso   1.00
Fe987  Fe    0.00000   0.88539   0.18750   0.12311  Uiso   1.00
Fe988  Fe    0.12500   0.76039   0.18750   0.12311  Uiso   1.00
H989   H     0.33362   0.94282   0.24459   0.12311  Uiso   0.00
C990   C     0.34798   0.96826   0.20948   0.12311  Uiso   1.00
C991   C     0.34983   0.93329   0.03017   0.12311  Uiso   1.00
C992   C     0.34102   0.94667   0.24471   0.12311  Uiso   1.00
C993   C     0.32622   0.93896   0.24448   0.12311  Uiso   1.00
C994   C     0.30418   0.96632   0.22131   0.12311  Uiso   1.00
C995   C     0.31789   0.96779   0.21580   0.12311  Uiso   1.00
N996   N     0.36109   0.96823   0.22318   0.12311  Uiso   1.00
N997   N     0.36224   0.94662   0.01686   0.12311  Uiso   1.00
H998   H     0.45862   0.81782   0.24459   0.12311  Uiso   0.00
C999   C     0.47298   0.84326   0.20948   0.12311  Uiso   1.00
C1000  C     0.47483   0.80829   0.03017   0.12311  Uiso   1.00
C1001  C     0.46602   0.82167   0.24471   0.12311  Uiso   1.00
C1002  C     0.45122   0.81396   0.24448   0.12311  Uiso   1.00
C1003  C     0.42918   0.84132   0.22131   0.12311  Uiso   1.00
C1004  C     0.44289   0.84279   0.21580   0.12311  Uiso   1.00
N1005  N     0.48609   0.84323   0.22318   0.12311  Uiso   1.00
N1006  N     0.48724   0.82162   0.01686   0.12311  Uiso   1.00
H1007  H     0.41638   0.94282   0.13041   0.12311  Uiso   0.00
C1008  C     0.40202   0.96826   0.16552   0.12311  Uiso   1.00
C1009  C     0.40017   0.93329   0.09483   0.12311  Uiso   1.00
C1010  C     0.40898   0.94667   0.13029   0.12311  Uiso   1.00
C1011  C     0.42378   0.93896   0.13052   0.12311  Uiso   1.00
C1012  C     0.44582   0.96632   0.15369   0.12311  Uiso   1.00
C1013  C     0.43211   0.96779   0.15920   0.12311  Uiso   1.00
N1014  N     0.38891   0.96823   0.15182   0.12311  Uiso   1.00
N1015  N     0.38776   0.94662   0.10814   0.12311  Uiso   1.00
H1016  H     0.29138   0.81782   0.13041   0.12311  Uiso   0.00
C1017  C     0.27702   0.84326   0.16552   0.12311  Uiso   1.00
C1018  C     0.27517   0.80829   0.09483   0.12311  Uiso   1.00
C1019  C     0.28398   0.82167   0.13029   0.12311  Uiso   1.00
C1020  C     0.29878   0.81396   0.13052   0.12311  Uiso   1.00
C1021  C     0.32082   0.84132   0.15369   0.12311  Uiso   1.00
C1022  C     0.30711   0.84279   0.15920   0.12311  Uiso   1.00
N1023  N     0.26391   0.84323   0.15182   0.12311  Uiso   1.00
N1024  N     0.26276   0.82162   0.10814   0.12311  Uiso   1.00
H1025  H     0.41638   0.80718   0.00541   0.12311  Uiso   0.00
C1026  C     0.40202   0.78174   0.04052   0.12311  Uiso   1.00
C1027  C     0.40017   0.81671   0.21983   0.12311  Uiso   1.00
C1028  C     0.40898   0.80333   0.00529   0.12311  Uiso   1.00
C1029  C     0.42378   0.81104   0.00552   0.12311  Uiso   1.00
C1030  C     0.44582   0.78368   0.02869   0.12311  Uiso   1.00
C1031  C     0.43211   0.78221   0.03420   0.12311  Uiso   1.00
N1032  N     0.38891   0.78177   0.02682   0.12311  Uiso   1.00
N1033  N     0.38776   0.80338   0.23314   0.12311  Uiso   1.00
H1034  H     0.29138   0.93218   0.00541   0.12311  Uiso   0.00
C1035  C     0.27702   0.90674   0.04052   0.12311  Uiso   1.00
C1036  C     0.27517   0.94171   0.21983   0.12311  Uiso   1.00
C1037  C     0.28398   0.92833   0.00529   0.12311  Uiso   1.00
C1038  C     0.29878   0.93604   0.00552   0.12311  Uiso   1.00
C1039  C     0.32082   0.90868   0.02869   0.12311  Uiso   1.00
C1040  C     0.30711   0.90721   0.03420   0.12311  Uiso   1.00
N1041  N     0.26391   0.90677   0.02682   0.12311  Uiso   1.00
N1042  N     0.26276   0.92838   0.23314   0.12311  Uiso   1.00
H1043  H     0.33362   0.80718   0.11959   0.12311  Uiso   0.00
C1044  C     0.34798   0.78174   0.08448   0.12311  Uiso   1.00
C1045  C     0.34983   0.81671   0.15517   0.12311  Uiso   1.00
C1046  C     0.34102   0.80333   0.11971   0.12311  Uiso   1.00
C1047  C     0.32622   0.81104   0.11948   0.12311  Uiso   1.00
C1048  C     0.30418   0.78368   0.09631   0.12311  Uiso   1.00
C1049  C     0.31789   0.78221   0.09080   0.12311  Uiso   1.00
N1050  N     0.36109   0.78177   0.09818   0.12311  Uiso   1.00
N1051  N     0.36224   0.80338   0.14186   0.12311  Uiso   1.00
H1052  H     0.45862   0.93218   0.11959   0.12311  Uiso   0.00
C1053  C     0.47298   0.90674   0.08448   0.12311  Uiso   1.00
C1054  C     0.47483   0.94171   0.15517   0.12311  Uiso   1.00
C1055  C     0.46602   0.92833   0.11971   0.12311  Uiso   1.00
C1056  C     0.45122   0.93604   0.11948   0.12311  Uiso   1.00
C1057  C     0.42918   0.90868   0.09631   0.12311  Uiso   1.00
C1058  C     0.44289   0.90721   0.09080   0.12311  Uiso   1.00
N1059  N     0.48609   0.90677   0.09818   0.12311  Uiso   1.00
N1060  N     0.48724   0.92838   0.14186   0.12311  Uiso   1.00
Fe1061 Fe    0.25000   0.86461   0.06250   0.12311  Uiso   1.00
Fe1062 Fe    0.37500   0.98961   0.06250   0.12311  Uiso   1.00
Fe1063 Fe    0.25000   0.88539   0.18750   0.12311  Uiso   1.00
Fe1064 Fe    0.37500   0.76039   0.18750   0.12311  Uiso   1.00
H1065  H     0.58362   0.94282   0.24459   0.12311  Uiso   0.00
C1066  C     0.59798   0.96826   0.20948   0.12311  Uiso   1.00
C1067  C     0.59983   0.93329   0.03017   0.12311  Uiso   1.00
C1068  C     0.59102   0.94667   0.24471   0.12311  Uiso   1.00
C1069  C     0.57622   0.93896   0.24448   0.12311  Uiso   1.00
C1070  C     0.55418   0.96632   0.22131   0.12311  Uiso   1.00
C1071  C     0.56789   0.96779   0.21580   0.12311  Uiso   1.00
N1072  N     0.61109   0.96823   0.22318   0.12311  Uiso   1.00
N1073  N     0.61224   0.94662   0.01686   0.12311  Uiso   1.00
H1074  H     0.70862   0.81782   0.24459   0.12311  Uiso   0.00
C1075  C     0.72298   0.84326   0.20948   0.12311  Uiso   1.00
C1076  C     0.72483   0.80829   0.03017   0.12311  Uiso   1.00
C1077  C     0.71602   0.82167   0.24471   0.12311  Uiso   1.00
C1078  C     0.70122   0.81396   0.24448   0.12311  Uiso   1.00
C1079  C     0.67918   0.84132   0.22131   0.12311  Uiso   1.00
C1080  C     0.69289   0.84279   0.21580   0.12311  Uiso   1.00
N1081  N     0.73609   0.84323   0.22318   0.12311  Uiso   1.00
N1082  N     0.73724   0.82162   0.01686   0.12311  Uiso   1.00
H1083  H     0.66638   0.94282   0.13041   0.12311  Uiso   0.00
C1084  C     0.65202   0.96826   0.16552   0.12311  Uiso   1.00
C1085  C     0.65017   0.93329   0.09483   0.12311  Uiso   1.00
C1086  C     0.65898   0.94667   0.13029   0.12311  Uiso   1.00
C1087  C     0.67378   0.93896   0.13052   0.12311  Uiso   1.00
C1088  C     0.69582   0.96632   0.15369   0.12311  Uiso   1.00
C1089  C     0.68211   0.96779   0.15920   0.12311  Uiso   1.00
N1090  N     0.63891   0.96823   0.15182   0.12311  Uiso   1.00
N1091  N     0.63776   0.94662   0.10814   0.12311  Uiso   1.00
H1092  H     0.54138   0.81782   0.13041   0.12311  Uiso   0.00
C1093  C     0.52702   0.84326   0.16552   0.12311  Uiso   1.00
C1094  C     0.52517   0.80829   0.09483   0.12311  Uiso   1.00
C1095  C     0.53398   0.82167   0.13029   0.12311  Uiso   1.00
C1096  C     0.54878   0.81396   0.13052   0.12311  Uiso   1.00
C1097  C     0.57082   0.84132   0.15369   0.12311  Uiso   1.00
C1098  C     0.55711   0.84279   0.15920   0.12311  Uiso   1.00
N1099  N     0.51391   0.84323   0.15182   0.12311  Uiso   1.00
N1100  N     0.51276   0.82162   0.10814   0.12311  Uiso   1.00
H1101  H     0.66638   0.80718   0.00541   0.12311  Uiso   0.00
C1102  C     0.65202   0.78174   0.04052   0.12311  Uiso   1.00
C1103  C     0.65017   0.81671   0.21983   0.12311  Uiso   1.00
C1104  C     0.65898   0.80333   0.00529   0.12311  Uiso   1.00
C1105  C     0.67378   0.81104   0.00552   0.12311  Uiso   1.00
C1106  C     0.69582   0.78368   0.02869   0.12311  Uiso   1.00
C1107  C     0.68211   0.78221   0.03420   0.12311  Uiso   1.00
N1108  N     0.63891   0.78177   0.02682   0.12311  Uiso   1.00
N1109  N     0.63776   0.80338   0.23314   0.12311  Uiso   1.00
H1110  H     0.54138   0.93218   0.00541   0.12311  Uiso   0.00
C1111  C     0.52702   0.90674   0.04052   0.12311  Uiso   1.00
C1112  C     0.52517   0.94171   0.21983   0.12311  Uiso   1.00
C1113  C     0.53398   0.92833   0.00529   0.12311  Uiso   1.00
C1114  C     0.54878   0.93604   0.00552   0.12311  Uiso   1.00
C1115  C     0.57082   0.90868   0.02869   0.12311  Uiso   1.00
C1116  C     0.55711   0.90721   0.03420   0.12311  Uiso   1.00
N1117  N     0.51391   0.90677   0.02682   0.12311  Uiso   1.00
N1118  N     0.51276   0.92838   0.23314   0.12311  Uiso   1.00
H1119  H     0.58362   0.80718   0.11959   0.12311  Uiso   0.00
C1120  C     0.59798   0.78174   0.08448   0.12311  Uiso   1.00
C1121  C     0.59983   0.81671   0.15517   0.12311  Uiso   1.00
C1122  C     0.59102   0.80333   0.11971   0.12311  Uiso   1.00
C1123  C     0.57622   0.81104   0.11948   0.12311  Uiso   1.00
C1124  C     0.55418   0.78368   0.09631   0.12311  Uiso   1.00
C1125  C     0.56789   0.78221   0.09080   0.12311  Uiso   1.00
N1126  N     0.61109   0.78177   0.09818   0.12311  Uiso   1.00
N1127  N     0.61224   0.80338   0.14186   0.12311  Uiso   1.00
H1128  H     0.70862   0.93218   0.11959   0.12311  Uiso   0.00
C1129  C     0.72298   0.90674   0.08448   0.12311  Uiso   1.00
C1130  C     0.72483   0.94171   0.15517   0.12311  Uiso   1.00
C1131  C     0.71602   0.92833   0.11971   0.12311  Uiso   1.00
C1132  C     0.70122   0.93604   0.11948   0.12311  Uiso   1.00
C1133  C     0.67918   0.90868   0.09631   0.12311  Uiso   1.00
C1134  C     0.69289   0.90721   0.09080   0.12311  Uiso   1.00
N1135  N     0.73609   0.90677   0.09818   0.12311  Uiso   1.00
N1136  N     0.73724   0.92838   0.14186   0.12311  Uiso   1.00
Fe1137 Fe    0.50000   0.86461   0.06250   0.12311  Uiso   1.00
Fe1138 Fe    0.62500   0.98961   0.06250   0.12311  Uiso   1.00
Fe1139 Fe    0.50000   0.88539   0.18750   0.12311  Uiso   1.00
Fe1140 Fe    0.62500   0.76039   0.18750   0.12311  Uiso   1.00
H1141  H     0.83362   0.94282   0.24459   0.12311  Uiso   0.00
C1142  C     0.84798   0.96826   0.20948   0.12311  Uiso   1.00
C1143  C     0.84983   0.93329   0.03017   0.12311  Uiso   1.00
C1144  C     0.84102   0.94667   0.24471   0.12311  Uiso   1.00
C1145  C     0.82622   0.93896   0.24448   0.12311  Uiso   1.00
C1146  C     0.80418   0.96632   0.22131   0.12311  Uiso   1.00
C1147  C     0.81789   0.96779   0.21580   0.12311  Uiso   1.00
N1148  N     0.86109   0.96823   0.22318   0.12311  Uiso   1.00
N1149  N     0.86224   0.94662   0.01686   0.12311  Uiso   1.00
H1150  H     0.95862   0.81782   0.24459   0.12311  Uiso   0.00
C1151  C     0.97298   0.84326   0.20948   0.12311  Uiso   1.00
C1152  C     0.97483   0.80829   0.03017   0.12311  Uiso   1.00
C1153  C     0.96602   0.82167   0.24471   0.12311  Uiso   1.00
C1154  C     0.95122   0.81396   0.24448   0.12311  Uiso   1.00
C1155  C     0.92918   0.84132   0.22131   0.12311  Uiso   1.00
C1156  C     0.94289   0.84279   0.21580   0.12311  Uiso   1.00
N1157  N     0.98609   0.84323   0.22318   0.12311  Uiso   1.00
N1158  N     0.98724   0.82162   0.01686   0.12311  Uiso   1.00
H1159  H     0.91638   0.94282   0.13041   0.12311  Uiso   0.00
C1160  C     0.90202   0.96826   0.16552   0.12311  Uiso   1.00
C1161  C     0.90017   0.93329   0.09483   0.12311  Uiso   1.00
C1162  C     0.90898   0.94667   0.13029   0.12311  Uiso   1.00
C1163  C     0.92378   0.93896   0.13052   0.12311  Uiso   1.00
C1164  C     0.94582   0.96632   0.15369   0.12311  Uiso   1.00
C1165  C     0.93211   0.96779   0.15920   0.12311  Uiso   1.00
N1166  N     0.88891   0.96823   0.15182   0.12311  Uiso   1.00
N1167  N     0.88776   0.94662   0.10814   0.12311  Uiso   1.00
H1168  H     0.79138   0.81782   0.13041   0.12311  Uiso   0.00
C1169  C     0.77702   0.84326   0.16552   0.12311  Uiso   1.00
C1170  C     0.77517   0.80829   0.09483   0.12311  Uiso   1.00
C1171  C     0.78398   0.82167   0.13029   0.12311  Uiso   1.00
C1172  C     0.79878   0.81396   0.13052   0.12311  Uiso   1.00
C1173  C     0.82082   0.84132   0.15369   0.12311  Uiso   1.00
C1174  C     0.80711   0.84279   0.15920   0.12311  Uiso   1.00
N1175  N     0.76391   0.84323   0.15182   0.12311  Uiso   1.00
N1176  N     0.76276   0.82162   0.10814   0.12311  Uiso   1.00
H1177  H     0.91638   0.80718   0.00541   0.12311  Uiso   0.00
C1178  C     0.90202   0.78174   0.04052   0.12311  Uiso   1.00
C1179  C     0.90017   0.81671   0.21983   0.12311  Uiso   1.00
C1180  C     0.90898   0.80333   0.00529   0.12311  Uiso   1.00
C1181  C     0.92378   0.81104   0.00552   0.12311  Uiso   1.00
C1182  C     0.94582   0.78368   0.02869   0.12311  Uiso   1.00
C1183  C     0.93211   0.78221   0.03420   0.12311  Uiso   1.00
N1184  N     0.88891   0.78177   0.02682   0.12311  Uiso   1.00
N1185  N     0.88776   0.80338   0.23314   0.12311  Uiso   1.00
H1186  H     0.79138   0.93218   0.00541   0.12311  Uiso   0.00
C1187  C     0.77702   0.90674   0.04052   0.12311  Uiso   1.00
C1188  C     0.77517   0.94171   0.21983   0.12311  Uiso   1.00
C1189  C     0.78398   0.92833   0.00529   0.12311  Uiso   1.00
C1190  C     0.79878   0.93604   0.00552   0.12311  Uiso   1.00
C1191  C     0.82082   0.90868   0.02869   0.12311  Uiso   1.00
C1192  C     0.80711   0.90721   0.03420   0.12311  Uiso   1.00
N1193  N     0.76391   0.90677   0.02682   0.12311  Uiso   1.00
N1194  N     0.76276   0.92838   0.23314   0.12311  Uiso   1.00
H1195  H     0.83362   0.80718   0.11959   0.12311  Uiso   0.00
C1196  C     0.84798   0.78174   0.08448   0.12311  Uiso   1.00
C1197  C     0.84983   0.81671   0.15517   0.12311  Uiso   1.00
C1198  C     0.84102   0.80333   0.11971   0.12311  Uiso   1.00
C1199  C     0.82622   0.81104   0.11948   0.12311  Uiso   1.00
C1200  C     0.80418   0.78368   0.09631   0.12311  Uiso   1.00
C1201  C     0.81789   0.78221   0.09080   0.12311  Uiso   1.00
N1202  N     0.86109   0.78177   0.09818   0.12311  Uiso   1.00
N1203  N     0.86224   0.80338   0.14186   0.12311  Uiso   1.00
H1204  H     0.95862   0.93218   0.11959   0.12311  Uiso   0.00
C1205  C     0.97298   0.90674   0.08448   0.12311  Uiso   1.00
C1206  C     0.97483   0.94171   0.15517   0.12311  Uiso   1.00
C1207  C     0.96602   0.92833   0.11971   0.12311  Uiso   1.00
C1208  C     0.95122   0.93604   0.11948   0.12311  Uiso   1.00
C1209  C     0.92918   0.90868   0.09631   0.12311  Uiso   1.00
C1210  C     0.94289   0.90721   0.09080   0.12311  Uiso   1.00
N1211  N     0.98609   0.90677   0.09818   0.12311  Uiso   1.00
N1212  N     0.98724   0.92838   0.14186   0.12311  Uiso   1.00
Fe1213 Fe    0.75000   0.86461   0.06250   0.12311  Uiso   1.00
Fe1214 Fe    0.87500   0.98961   0.06250   0.12311  Uiso   1.00
Fe1215 Fe    0.75000   0.88539   0.18750   0.12311  Uiso   1.00
Fe1216 Fe    0.87500   0.76039   0.18750   0.12311  Uiso   1.00
H1217  H     0.08362   0.19282   0.49459   0.12311  Uiso   0.00
C1218  C     0.09798   0.21826   0.45948   0.12311  Uiso   1.00
C1219  C     0.09983   0.18329   0.28017   0.12311  Uiso   1.00
C1220  C     0.09102   0.19667   0.49471   0.12311  Uiso   1.00
C1221  C     0.07622   0.18896   0.49448   0.12311  Uiso   1.00
C1222  C     0.05418   0.21632   0.47131   0.12311  Uiso   1.00
C1223  C     0.06789   0.21779   0.46580   0.12311  Uiso   1.00
N1224  N     0.11109   0.21823   0.47318   0.12311  Uiso   1.00
N1225  N     0.11224   0.19662   0.26686   0.12311  Uiso   1.00
H1226  H     0.20862   0.06782   0.49459   0.12311  Uiso   0.00
C1227  C     0.22298   0.09326   0.45948   0.12311  Uiso   1.00
C1228  C     0.22483   0.05829   0.28017   0.12311  Uiso   1.00
C1229  C     0.21602   0.07167   0.49471   0.12311  Uiso   1.00
C1230  C     0.20122   0.06396   0.49448   0.12311  Uiso   1.00
C1231  C     0.17918   0.09132   0.47131   0.12311  Uiso   1.00
C1232  C     0.19289   0.09279   0.46580   0.12311  Uiso   1.00
N1233  N     0.23609   0.09323   0.47318   0.12311  Uiso   1.00
N1234  N     0.23724   0.07162   0.26686   0.12311  Uiso   1.00
H1235  H     0.16638   0.19282   0.38041   0.12311  Uiso   0.00
C1236  C     0.15202   0.21826   0.41552   0.12311  Uiso   1.00
C1237  C     0.15017   0.18329   0.34483   0.12311  Uiso   1.00
C1238  C     0.15898   0.19667   0.38029   0.12311  Uiso   1.00
C1239  C     0.17378   0.18896   0.38052   0.12311  Uiso   1.00
C1240  C     0.19582   0.21632   0.40369   0.12311  Uiso   1.00
C1241  C     0.18211   0.21779   0.40920   0.12311  Uiso   1.00
N1242  N     0.13891   0.21823   0.40182   0.12311  Uiso   1.00
N1243  N     0.13776   0.19662   0.35814   0.12311  Uiso   1.00
H1244  H     0.04138   0.06782   0.38041   0.12311  Uiso   0.00
C1245  C     0.02702   0.09326   0.41552   0.12311  Uiso   1.00
C1246  C     0.02517   0.05829   0.34483   0.12311  Uiso   1.00
C1247  C     0.03398   0.07167   0.38029   0.12311  Uiso   1.00
C1248  C     0.04878   0.06396   0.38052   0.12311  Uiso   1.00
C1249  C     0.07082   0.09132   0.40369   0.12311  Uiso   1.00
C1250  C     0.05711   0.09279   0.40920   0.12311  Uiso   1.00
N1251  N     0.01391   0.09323   0.40182   0.12311  Uiso   1.00
N1252  N     0.01276   0.07162   0.35814   0.12311  Uiso   1.00
H1253  H     0.16638   0.05718   0.25541   0.12311  Uiso   0.00
C1254  C     0.15202   0.03174   0.29052   0.12311  Uiso   1.00
C1255  C     0.15017   0.06671   0.46983   0.12311  Uiso   1.00
C1256  C     0.15898   0.05333   0.25529   0.12311  Uiso   1.00
C1257  C     0.17378   0.06104   0.25552   0.12311  Uiso   1.00
C1258  C     0.19582   0.03368   0.27869   0.12311  Uiso   1.00
C1259  C     0.18211   0.03221   0.28420   0.12311  Uiso   1.00
N1260  N     0.13891   0.03177   0.27682   0.12311  Uiso   1.00
N1261  N     0.13776   0.05338   0.48314   0.12311  Uiso   1.00
H1262  H     0.04138   0.18218   0.25541   0.12311  Uiso   0.00
C1263  C     0.02702   0.15674   0.29052   0.12311  Uiso   1.00
C1264  C     0.02517   0.19171   0.46983   0.12311  Uiso   1.00
C1265  C     0.03398   0.17833   0.25529   0.12311  Uiso   1.00
C1266  C     0.04878   0.18604   0.25552   0.12311  Uiso   1.00
C1267  C     0.07082   0.15868   0.27869   0.12311  Uiso   1.00
C1268  C     0.05711   0.15721   0.28420   0.12311  Uiso   1.00
N1269  N     0.01391   0.15677   0.27682   0.12311  Uiso   1.00
N1270  N     0.01276   0.17838   0.48314   0.12311  Uiso   1.00
H1271  H     0.08362   0.05718   0.36959   0.12311  Uiso   0.00
C1272  C     0.09798   0.03174   0.33448   0.12311  Uiso   1.00
C1273  C     0.09983   0.06671   0.40517   0.12311  Uiso   1.00
C1274  C     0.09102   0.05333   0.36971   0.12311  Uiso   1.00
C1275  C     0.07622   0.06104   0.36948   0.12311  Uiso   1.00
C1276  C     0.05418   0.03368   0.34631   0.12311  Uiso   1.00
C1277  C     0.06789   0.03221   0.34080   0.12311  Uiso   1.00
N1278  N     0.11109   0.03177   0.34818   0.12311  Uiso   1.00
N1279  N     0.11224   0.05338   0.39186   0.12311  Uiso   1.00
H1280  H     0.20862   0.18218   0.36959   0.12311  Uiso   0.00
C1281  C     0.22298   0.15674   0.33448   0.12311  Uiso   1.00
C1282  C     0.22483   0.19171   0.40517   0.12311  Uiso   1.00
C1283  C     0.21602   0.17833   0.36971   0.12311  Uiso   1.00
C1284  C     0.20122   0.18604   0.36948   0.12311  Uiso   1.00
C1285  C     0.17918   0.15868   0.34631   0.12311  Uiso   1.00
C1286  C     0.19289   0.15721   0.34080   0.12311  Uiso   1.00
N1287  N     0.23609   0.15677   0.34818   0.12311  Uiso   1.00
N1288  N     0.23724   0.17838   0.39186   0.12311  Uiso   1.00
Fe1289 Fe    0.00000   0.11461   0.31250   0.12311  Uiso   1.00
Fe1290 Fe    0.12500   0.23961   0.31250   0.12311  Uiso   1.00
Fe1291 Fe    0.00000   0.13539   0.43750   0.12311  Uiso   1.00
Fe1292 Fe    0.12500   0.01039   0.43750   0.12311  Uiso   1.00
H1293  H     0.33362   0.19282   0.49459   0.12311  Uiso   0.00
C1294  C     0.34798   0.21826   0.45948   0.12311  Uiso   1.00
C1295  C     0.34983   0.18329   0.28017   0.12311  Uiso   1.00
C1296  C     0.34102   0.19667   0.49471   0.12311  Uiso   1.00
C1297  C     0.32622   0.18896   0.49448   0.12311  Uiso   1.00
C1298  C     0.30418   0.21632   0.47131   0.12311  Uiso   1.00
C1299  C     0.31789   0.21779   0.46580   0.12311  Uiso   1.00
N1300  N     0.36109   0.21823   0.47318   0.12311  Uiso   1.00
N1301  N     0.36224   0.19662   0.26686   0.12311  Uiso   1.00
H1302  H     0.45862   0.06782   0.49459   0.12311  Uiso   0.00
C1303  C     0.47298   0.09326   0.45948   0.12311  Uiso   1.00
C1304  C     0.47483   0.05829   0.28017   0.12311  Uiso   1.00
C1305  C     0.46602   0.07167   0.49471   0.12311  Uiso   1.00
C1306  C     0.45122   0.06396   0.49448   0.12311  Uiso   1.00
C1307  C     0.42918   0.09132   0.47131   0.12311  Uiso   1.00
C1308  C     0.44289   0.09279   0.46580   0.12311  Uiso   1.00
N1309  N     0.48609   0.09323   0.47318   0.12311  Uiso   1.00
N1310  N     0.48724   0.07162   0.26686   0.12311  Uiso   1.00
H1311  H     0.41638   0.19282   0.38041   0.12311  Uiso   0.00
C1312  C     0.40202   0.21826   0.41552   0.12311  Uiso   1.00
C1313  C     0.40017   0.18329   0.34483   0.12311  Uiso   1.00
C1314  C     0.40898   0.19667   0.38029   0.12311  Uiso   1.00
C1315  C     0.42378   0.18896   0.38052   0.12311  Uiso   1.00
C1316  C     0.44582   0.21632   0.40369   0.12311  Uiso   1.00
C1317  C     0.43211   0.21779   0.40920   0.12311  Uiso   1.00
N1318  N     0.38891   0.21823   0.40182   0.12311  Uiso   1.00
N1319  N     0.38776   0.19662   0.35814   0.12311  Uiso   1.00
H1320  H     0.29138   0.06782   0.38041   0.12311  Uiso   0.00
C1321  C     0.27702   0.09326   0.41552   0.12311  Uiso   1.00
C1322  C     0.27517   0.05829   0.34483   0.12311  Uiso   1.00
C1323  C     0.28398   0.07167   0.38029   0.12311  Uiso   1.00
C1324  C     0.29878   0.06396   0.38052   0.12311  Uiso   1.00
C1325  C     0.32082   0.09132   0.40369   0.12311  Uiso   1.00
C1326  C     0.30711   0.09279   0.40920   0.12311  Uiso   1.00
N1327  N     0.26391   0.09323   0.40182   0.12311  Uiso   1.00
N1328  N     0.26276   0.07162   0.35814   0.12311  Uiso   1.00
H1329  H     0.41638   0.05718   0.25541   0.12311  Uiso   0.00
C1330  C     0.40202   0.03174   0.29052   0.12311  Uiso   1.00
C1331  C     0.40017   0.06671   0.46983   0.12311  Uiso   1.00
C1332  C     0.40898   0.05333   0.25529   0.12311  Uiso   1.00
C1333  C     0.42378   0.06104   0.25552   0.12311  Uiso   1.00
C1334  C     0.44582   0.03368   0.27869   0.12311  Uiso   1.00
C1335  C     0.43211   0.03221   0.28420   0.12311  Uiso   1.00
N1336  N     0.38891   0.03177   0.27682   0.12311  Uiso   1.00
N1337  N     0.38776   0.05338   0.48314   0.12311  Uiso   1.00
H1338  H     0.29138   0.18218   0.25541   0.12311  Uiso   0.00
C1339  C     0.27702   0.15674   0.29052   0.12311  Uiso   1.00
C1340  C     0.27517   0.19171   0.46983   0.12311  Uiso   1.00
C1341  C     0.28398   0.17833   0.25529   0.12311  Uiso   1.00
C1342  C     0.29878   0.18604   0.25552   0.12311  Uiso   1.00
C1343  C     0.32082   0.15868   0.27869   0.12311  Uiso   1.00
C1344  C     0.30711   0.15721   0.28420   0.12311  Uiso   1.00
N1345  N     0.26391   0.15677   0.27682   0.12311  Uiso   1.00
N1346  N     0.26276   0.17838   0.48314   0.12311  Uiso   1.00
H1347  H     0.33362   0.05718   0.36959   0.12311  Uiso   0.00
C1348  C     0.34798   0.03174   0.33448   0.12311  Uiso   1.00
C1349  C     0.34983   0.06671   0.40517   0.12311  Uiso   1.00
C1350  C     0.34102   0.05333   0.36971   0.12311  Uiso   1.00
C1351  C     0.32622   0.06104   0.36948   0.12311  Uiso   1.00
C1352  C     0.30418   0.03368   0.34631   0.12311  Uiso   1.00
C1353  C     0.31789   0.03221   0.34080   0.12311  Uiso   1.00
N1354  N     0.36109   0.03177   0.34818   0.12311  Uiso   1.00
N1355  N     0.36224   0.05338   0.39186   0.12311  Uiso   1.00
H1356  H     0.45862   0.18218   0.36959   0.12311  Uiso   0.00
C1357  C     0.47298   0.15674   0.33448   0.12311  Uiso   1.00
C1358  C     0.47483   0.19171   0.40517   0.12311  Uiso   1.00
C1359  C     0.46602   0.17833   0.36971   0.12311  Uiso   1.00
C1360  C     0.45122   0.18604   0.36948   0.12311  Uiso   1.00
C1361  C     0.42918   0.15868   0.34631   0.12311  Uiso   1.00
C1362  C     0.44289   0.15721   0.34080   0.12311  Uiso   1.00
N1363  N     0.48609   0.15677   0.34818   0.12311  Uiso   1.00
N1364  N     0.48724   0.17838   0.39186   0.12311  Uiso   1.00
Fe1365 Fe    0.25000   0.11461   0.31250   0.12311  Uiso   1.00
Fe1366 Fe    0.37500   0.23961   0.31250   0.12311  Uiso   1.00
Fe1367 Fe    0.25000   0.13539   0.43750   0.12311  Uiso   1.00
Fe1368 Fe    0.37500   0.01039   0.43750   0.12311  Uiso   1.00
H1369  H     0.58362   0.19282   0.49459   0.12311  Uiso   0.00
C1370  C     0.59798   0.21826   0.45948   0.12311  Uiso   1.00
C1371  C     0.59983   0.18329   0.28017   0.12311  Uiso   1.00
C1372  C     0.59102   0.19667   0.49471   0.12311  Uiso   1.00
C1373  C     0.57622   0.18896   0.49448   0.12311  Uiso   1.00
C1374  C     0.55418   0.21632   0.47131   0.12311  Uiso   1.00
C1375  C     0.56789   0.21779   0.46580   0.12311  Uiso   1.00
N1376  N     0.61109   0.21823   0.47318   0.12311  Uiso   1.00
N1377  N     0.61224   0.19662   0.26686   0.12311  Uiso   1.00
H1378  H     0.70862   0.06782   0.49459   0.12311  Uiso   0.00
C1379  C     0.72298   0.09326   0.45948   0.12311  Uiso   1.00
C1380  C     0.72483   0.05829   0.28017   0.12311  Uiso   1.00
C1381  C     0.71602   0.07167   0.49471   0.12311  Uiso   1.00
C1382  C     0.70122   0.06396   0.49448   0.12311  Uiso   1.00
C1383  C     0.67918   0.09132   0.47131   0.12311  Uiso   1.00
C1384  C     0.69289   0.09279   0.46580   0.12311  Uiso   1.00
N1385  N     0.73609   0.09323   0.47318   0.12311  Uiso   1.00
N1386  N     0.73724   0.07162   0.26686   0.12311  Uiso   1.00
H1387  H     0.66638   0.19282   0.38041   0.12311  Uiso   0.00
C1388  C     0.65202   0.21826   0.41552   0.12311  Uiso   1.00
C1389  C     0.65017   0.18329   0.34483   0.12311  Uiso   1.00
C1390  C     0.65898   0.19667   0.38029   0.12311  Uiso   1.00
C1391  C     0.67378   0.18896   0.38052   0.12311  Uiso   1.00
C1392  C     0.69582   0.21632   0.40369   0.12311  Uiso   1.00
C1393  C     0.68211   0.21779   0.40920   0.12311  Uiso   1.00
N1394  N     0.63891   0.21823   0.40182   0.12311  Uiso   1.00
N1395  N     0.63776   0.19662   0.35814   0.12311  Uiso   1.00
H1396  H     0.54138   0.06782   0.38041   0.12311  Uiso   0.00
C1397  C     0.52702   0.09326   0.41552   0.12311  Uiso   1.00
C1398  C     0.52517   0.05829   0.34483   0.12311  Uiso   1.00
C1399  C     0.53398   0.07167   0.38029   0.12311  Uiso   1.00
C1400  C     0.54878   0.06396   0.38052   0.12311  Uiso   1.00
C1401  C     0.57082   0.09132   0.40369   0.12311  Uiso   1.00
C1402  C     0.55711   0.09279   0.40920   0.12311  Uiso   1.00
N1403  N     0.51391   0.09323   0.40182   0.12311  Uiso   1.00
N1404  N     0.51276   0.07162   0.35814   0.12311  Uiso   1.00
H1405  H     0.66638   0.05718   0.25541   0.12311  Uiso   0.00
C1406  C     0.65202   0.03174   0.29052   0.12311  Uiso   1.00
C1407  C     0.65017   0.06671   0.46983   0.12311  Uiso   1.00
C1408  C     0.65898   0.05333   0.25529   0.12311  Uiso   1.00
C1409  C     0.67378   0.06104   0.25552   0.12311  Uiso   1.00
C1410  C     0.69582   0.03368   0.27869   0.12311  Uiso   1.00
C1411  C     0.68211   0.03221   0.28420   0.12311  Uiso   1.00
N1412  N     0.63891   0.03177   0.27682   0.12311  Uiso   1.00
N1413  N     0.63776   0.05338   0.48314   0.12311  Uiso   1.00
H1414  H     0.54138   0.18218   0.25541   0.12311  Uiso   0.00
C1415  C     0.52702   0.15674   0.29052   0.12311  Uiso   1.00
C1416  C     0.52517   0.19171   0.46983   0.12311  Uiso   1.00
C1417  C     0.53398   0.17833   0.25529   0.12311  Uiso   1.00
C1418  C     0.54878   0.18604   0.25552   0.12311  Uiso   1.00
C1419  C     0.57082   0.15868   0.27869   0.12311  Uiso   1.00
C1420  C     0.55711   0.15721   0.28420   0.12311  Uiso   1.00
N1421  N     0.51391   0.15677   0.27682   0.12311  Uiso   1.00
N1422  N     0.51276   0.17838   0.48314   0.12311  Uiso   1.00
H1423  H     0.58362   0.05718   0.36959   0.12311  Uiso   0.00
C1424  C     0.59798   0.03174   0.33448   0.12311  Uiso   1.00
C1425  C     0.59983   0.06671   0.40517   0.12311  Uiso   1.00
C1426  C     0.59102   0.05333   0.36971   0.12311  Uiso   1.00
C1427  C     0.57622   0.06104   0.36948   0.12311  Uiso   1.00
C1428  C     0.55418   0.03368   0.34631   0.12311  Uiso   1.00
C1429  C     0.56789   0.03221   0.34080   0.12311  Uiso   1.00
N1430  N     0.61109   0.03177   0.34818   0.12311  Uiso   1.00
N1431  N     0.61224   0.05338   0.39186   0.12311  Uiso   1.00
H1432  H     0.70862   0.18218   0.36959   0.12311  Uiso   0.00
C1433  C     0.72298   0.15674   0.33448   0.12311  Uiso   1.00
C1434  C     0.72483   0.19171   0.40517   0.12311  Uiso   1.00
C1435  C     0.71602   0.17833   0.36971   0.12311  Uiso   1.00
C1436  C     0.70122   0.18604   0.36948   0.12311  Uiso   1.00
C1437  C     0.67918   0.15868   0.34631   0.12311  Uiso   1.00
C1438  C     0.69289   0.15721   0.34080   0.12311  Uiso   1.00
N1439  N     0.73609   0.15677   0.34818   0.12311  Uiso   1.00
N1440  N     0.73724   0.17838   0.39186   0.12311  Uiso   1.00
Fe1441 Fe    0.50000   0.11461   0.31250   0.12311  Uiso   1.00
Fe1442 Fe    0.62500   0.23961   0.31250   0.12311  Uiso   1.00
Fe1443 Fe    0.50000   0.13539   0.43750   0.12311  Uiso   1.00
Fe1444 Fe    0.62500   0.01039   0.43750   0.12311  Uiso   1.00
H1445  H     0.83362   0.19282   0.49459   0.12311  Uiso   0.00
C1446  C     0.84798   0.21826   0.45948   0.12311  Uiso   1.00
C1447  C     0.84983   0.18329   0.28017   0.12311  Uiso   1.00
C1448  C     0.84102   0.19667   0.49471   0.12311  Uiso   1.00
C1449  C     0.82622   0.18896   0.49448   0.12311  Uiso   1.00
C1450  C     0.80418   0.21632   0.47131   0.12311  Uiso   1.00
C1451  C     0.81789   0.21779   0.46580   0.12311  Uiso   1.00
N1452  N     0.86109   0.21823   0.47318   0.12311  Uiso   1.00
N1453  N     0.86224   0.19662   0.26686   0.12311  Uiso   1.00
H1454  H     0.95862   0.06782   0.49459   0.12311  Uiso   0.00
C1455  C     0.97298   0.09326   0.45948   0.12311  Uiso   1.00
C1456  C     0.97483   0.05829   0.28017   0.12311  Uiso   1.00
C1457  C     0.96602   0.07167   0.49471   0.12311  Uiso   1.00
C1458  C     0.95122   0.06396   0.49448   0.12311  Uiso   1.00
C1459  C     0.92918   0.09132   0.47131   0.12311  Uiso   1.00
C1460  C     0.94289   0.09279   0.46580   0.12311  Uiso   1.00
N1461  N     0.98609   0.09323   0.47318   0.12311  Uiso   1.00
N1462  N     0.98724   0.07162   0.26686   0.12311  Uiso   1.00
H1463  H     0.91638   0.19282   0.38041   0.12311  Uiso   0.00
C1464  C     0.90202   0.21826   0.41552   0.12311  Uiso   1.00
C1465  C     0.90017   0.18329   0.34483   0.12311  Uiso   1.00
C1466  C     0.90898   0.19667   0.38029   0.12311  Uiso   1.00
C1467  C     0.92378   0.18896   0.38052   0.12311  Uiso   1.00
C1468  C     0.94582   0.21632   0.40369   0.12311  Uiso   1.00
C1469  C     0.93211   0.21779   0.40920   0.12311  Uiso   1.00
N1470  N     0.88891   0.21823   0.40182   0.12311  Uiso   1.00
N1471  N     0.88776   0.19662   0.35814   0.12311  Uiso   1.00
H1472  H     0.79138   0.06782   0.38041   0.12311  Uiso   0.00
C1473  C     0.77702   0.09326   0.41552   0.12311  Uiso   1.00
C1474  C     0.77517   0.05829   0.34483   0.12311  Uiso   1.00
C1475  C     0.78398   0.07167   0.38029   0.12311  Uiso   1.00
C1476  C     0.79878   0.06396   0.38052   0.12311  Uiso   1.00
C1477  C     0.82082   0.09132   0.40369   0.12311  Uiso   1.00
C1478  C     0.80711   0.09279   0.40920   0.12311  Uiso   1.00
N1479  N     0.76391   0.09323   0.40182   0.12311  Uiso   1.00
N1480  N     0.76276   0.07162   0.35814   0.12311  Uiso   1.00
H1481  H     0.91638   0.05718   0.25541   0.12311  Uiso   0.00
C1482  C     0.90202   0.03174   0.29052   0.12311  Uiso   1.00
C1483  C     0.90017   0.06671   0.46983   0.12311  Uiso   1.00
C1484  C     0.90898   0.05333   0.25529   0.12311  Uiso   1.00
C1485  C     0.92378   0.06104   0.25552   0.12311  Uiso   1.00
C1486  C     0.94582   0.03368   0.27869   0.12311  Uiso   1.00
C1487  C     0.93211   0.03221   0.28420   0.12311  Uiso   1.00
N1488  N     0.88891   0.03177   0.27682   0.12311  Uiso   1.00
N1489  N     0.88776   0.05338   0.48314   0.12311  Uiso   1.00
H1490  H     0.79138   0.18218   0.25541   0.12311  Uiso   0.00
C1491  C     0.77702   0.15674   0.29052   0.12311  Uiso   1.00
C1492  C     0.77517   0.19171   0.46983   0.12311  Uiso   1.00
C1493  C     0.78398   0.17833   0.25529   0.12311  Uiso   1.00
C1494  C     0.79878   0.18604   0.25552   0.12311  Uiso   1.00
C1495  C     0.82082   0.15868   0.27869   0.12311  Uiso   1.00
C1496  C     0.80711   0.15721   0.28420   0.12311  Uiso   1.00
N1497  N     0.76391   0.15677   0.27682   0.12311  Uiso   1.00
N1498  N     0.76276   0.17838   0.48314   0.12311  Uiso   1.00
H1499  H     0.83362   0.05718   0.36959   0.12311  Uiso   0.00
C1500  C     0.84798   0.03174   0.33448   0.12311  Uiso   1.00
C1501  C     0.84983   0.06671   0.40517   0.12311  Uiso   1.00
C1502  C     0.84102   0.05333   0.36971   0.12311  Uiso   1.00
C1503  C     0.82622   0.06104   0.36948   0.12311  Uiso   1.00
C1504  C     0.80418   0.03368   0.34631   0.12311  Uiso   1.00
C1505  C     0.81789   0.03221   0.34080   0.12311  Uiso   1.00
N1506  N     0.86109   0.03177   0.34818   0.12311  Uiso   1.00
N1507  N     0.86224   0.05338   0.39186   0.12311  Uiso   1.00
H1508  H     0.95862   0.18218   0.36959   0.12311  Uiso   0.00
C1509  C     0.97298   0.15674   0.33448   0.12311  Uiso   1.00
C1510  C     0.97483   0.19171   0.40517   0.12311  Uiso   1.00
C1511  C     0.96602   0.17833   0.36971   0.12311  Uiso   1.00
C1512  C     0.95122   0.18604   0.36948   0.12311  Uiso   1.00
C1513  C     0.92918   0.15868   0.34631   0.12311  Uiso   1.00
C1514  C     0.94289   0.15721   0.34080   0.12311  Uiso   1.00
N1515  N     0.98609   0.15677   0.34818   0.12311  Uiso   1.00
N1516  N     0.98724   0.17838   0.39186   0.12311  Uiso   1.00
Fe1517 Fe    0.75000   0.11461   0.31250   0.12311  Uiso   1.00
Fe1518 Fe    0.87500   0.23961   0.31250   0.12311  Uiso   1.00
Fe1519 Fe    0.75000   0.13539   0.43750   0.12311  Uiso   1.00
Fe1520 Fe    0.87500   0.01039   0.43750   0.12311  Uiso   1.00
H1521  H     0.08362   0.44282   0.49459   0.12311  Uiso   0.00
C1522  C     0.09798   0.46826   0.45948   0.12311  Uiso   1.00
C1523  C     0.09983   0.43329   0.28017   0.12311  Uiso   1.00
C1524  C     0.09102   0.44667   0.49471   0.12311  Uiso   1.00
C1525  C     0.07622   0.43896   0.49448   0.12311  Uiso   1.00
C1526  C     0.05418   0.46632   0.47131   0.12311  Uiso   1.00
C1527  C     0.06789   0.46779   0.46580   0.12311  Uiso   1.00
N1528  N     0.11109   0.46823   0.47318   0.12311  Uiso   1.00
N1529  N     0.11224   0.44662   0.26686   0.12311  Uiso   1.00
H1530  H     0.20862   0.31782   0.49459   0.12311  Uiso   0.00
C1531  C     0.22298   0.34326   0.45948   0.12311  Uiso   1.00
C1532  C     0.22483   0.30829   0.28017   0.12311  Uiso   1.00
C1533  C     0.21602   0.32167   0.49471   0.12311  Uiso   1.00
C1534  C     0.20122   0.31396   0.49448   0.12311  Uiso   1.00
C1535  C     0.17918   0.34132   0.47131   0.12311  Uiso   1.00
C1536  C     0.19289   0.34279   0.46580   0.12311  Uiso   1.00
N1537  N     0.23609   0.34323   0.47318   0.12311  Uiso   1.00
N1538  N     0.23724   0.32162   0.26686   0.12311  Uiso   1.00
H1539  H     0.16638   0.44282   0.38041   0.12311  Uiso   0.00
C1540  C     0.15202   0.46826   0.41552   0.12311  Uiso   1.00
C1541  C     0.15017   0.43329   0.34483   0.12311  Uiso   1.00
C1542  C     0.15898   0.44667   0.38029   0.12311  Uiso   1.00
C1543  C     0.17378   0.43896   0.38052   0.12311  Uiso   1.00
C1544  C     0.19582   0.46632   0.40369   0.12311  Uiso   1.00
C1545  C     0.18211   0.46779   0.40920   0.12311  Uiso   1.00
N1546  N     0.13891   0.46823   0.40182   0.12311  Uiso   1.00
N1547  N     0.13776   0.44662   0.35814   0.12311  Uiso   1.00
H1548  H     0.04138   0.31782   0.38041   0.12311  Uiso   0.00
C1549  C     0.02702   0.34326   0.41552   0.12311  Uiso   1.00
C1550  C     0.02517   0.30829   0.34483   0.12311  Uiso   1.00
C1551  C     0.03398   0.32167   0.38029   0.12311  Uiso   1.00
C1552  C     0.04878   0.31396   0.38052   0.12311  Uiso   1.00
C1553  C     0.07082   0.34132   0.40369   0.12311  Uiso   1.00
C1554  C     0.05711   0.34279   0.40920   0.12311  Uiso   1.00
N1555  N     0.01391   0.34323   0.40182   0.12311  Uiso   1.00
N1556  N     0.01276   0.32162   0.35814   0.12311  Uiso   1.00
H1557  H     0.16638   0.30718   0.25541   0.12311  Uiso   0.00
C1558  C     0.15202   0.28174   0.29052   0.12311  Uiso   1.00
C1559  C     0.15017   0.31671   0.46983   0.12311  Uiso   1.00
C1560  C     0.15898   0.30333   0.25529   0.12311  Uiso   1.00
C1561  C     0.17378   0.31104   0.25552   0.12311  Uiso   1.00
C1562  C     0.19582   0.28368   0.27869   0.12311  Uiso   1.00
C1563  C     0.18211   0.28221   0.28420   0.12311  Uiso   1.00
N1564  N     0.13891   0.28177   0.27682   0.12311  Uiso   1.00
N1565  N     0.13776   0.30338   0.48314   0.12311  Uiso   1.00
H1566  H     0.04138   0.43218   0.25541   0.12311  Uiso   0.00
C1567  C     0.02702   0.40674   0.29052   0.12311  Uiso   1.00
C1568  C     0.02517   0.44171   0.46983   0.12311  Uiso   1.00
C1569  C     0.03398   0.42833   0.25529   0.12311  Uiso   1.00
C1570  C     0.04878   0.43604   0.25552   0.12311  Uiso   1.00
C1571  C     0.07082   0.40868   0.27869   0.12311  Uiso   1.00
C1572  C     0.05711   0.40721   0.28420   0.12311  Uiso   1.00
N1573  N     0.01391   0.40677   0.27682   0.12311  Uiso   1.00
N1574  N     0.01276   0.42838   0.48314   0.12311  Uiso   1.00
H1575  H     0.08362   0.30718   0.36959   0.12311  Uiso   0.00
C1576  C     0.09798   0.28174   0.33448   0.12311  Uiso   1.00
C1577  C     0.09983   0.31671   0.40517   0.12311  Uiso   1.00
C1578  C     0.09102   0.30333   0.36971   0.12311  Uiso   1.00
C1579  C     0.07622   0.31104   0.36948   0.12311  Uiso   1.00
C1580  C     0.05418   0.28368   0.34631   0.12311  Uiso   1.00
C1581  C     0.06789   0.28221   0.34080   0.12311  Uiso   1.00
N1582  N     0.11109   0.28177   0.34818   0.12311  Uiso   1.00
N1583  N     0.11224   0.30338   0.39186   0.12311  Uiso   1.00
H1584  H     0.20862   0.43218   0.36959   0.12311  Uiso   0.00
C1585  C     0.22298   0.40674   0.33448   0.12311  Uiso   1.00
C1586  C     0.22483   0.44171   0.40517   0.12311  Uiso   1.00
C1587  C     0.21602   0.42833   0.36971   0.12311  Uiso   1.00
C1588  C     0.20122   0.43604   0.36948   0.12311  Uiso   1.00
C1589  C     0.17918   0.40868   0.34631   0.12311  Uiso   1.00
C1590  C     0.19289   0.40721   0.34080   0.12311  Uiso   1.00
N1591  N     0.23609   0.40677   0.34818   0.12311  Uiso   1.00
N1592  N     0.23724   0.42838   0.39186   0.12311  Uiso   1.00
Fe1593 Fe    0.00000   0.36461   0.31250   0.12311  Uiso   1.00
Fe1594 Fe    0.12500   0.48961   0.31250   0.12311  Uiso   1.00
Fe1595 Fe    0.00000   0.38539   0.43750   0.12311  Uiso   1.00
Fe1596 Fe    0.12500   0.26039   0.43750   0.12311  Uiso   1.00
H1597  H     0.33362   0.44282   0.49459   0.12311  Uiso   0.00
C1598  C     0.34798   0.46826   0.45948   0.12311  Uiso   1.00
C1599  C     0.34983   0.43329   0.28017   0.12311  Uiso   1.00
C1600  C     0.34102   0.44667   0.49471   0.12311  Uiso   1.00
C1601  C     0.32622   0.43896   0.49448   0.12311  Uiso   1.00
C1602  C     0.30418   0.46632   0.47131   0.12311  Uiso   1.00
C1603  C     0.31789   0.46779   0.46580   0.12311  Uiso   1.00
N1604  N     0.36109   0.46823   0.47318   0.12311  Uiso   1.00
N1605  N     0.36224   0.44662   0.26686   0.12311  Uiso   1.00
H1606  H     0.45862   0.31782   0.49459   0.12311  Uiso   0.00
C1607  C     0.47298   0.34326   0.45948   0.12311  Uiso   1.00
C1608  C     0.47483   0.30829   0.28017   0.12311  Uiso   1.00
C1609  C     0.46602   0.32167   0.49471   0.12311  Uiso   1.00
C1610  C     0.45122   0.31396   0.49448   0.12311  Uiso   1.00
C1611  C     0.42918   0.34132   0.47131   0.12311  Uiso   1.00
C1612  C     0.44289   0.34279   0.46580   0.12311  Uiso   1.00
N1613  N     0.48609   0.34323   0.47318   0.12311  Uiso   1.00
N1614  N     0.48724   0.32162   0.26686   0.12311  Uiso   1.00
H1615  H     0.41638   0.44282   0.38041   0.12311  Uiso   0.00
C1616  C     0.40202   0.46826   0.41552   0.12311  Uiso   1.00
C1617  C     0.40017   0.43329   0.34483   0.12311  Uiso   1.00
C1618  C     0.40898   0.44667   0.38029   0.12311  Uiso   1.00
C1619  C     0.42378   0.43896   0.38052   0.12311  Uiso   1.00
C1620  C     0.44582   0.46632   0.40369   0.12311  Uiso   1.00
C1621  C     0.43211   0.46779   0.40920   0.12311  Uiso   1.00
N1622  N     0.38891   0.46823   0.40182   0.12311  Uiso   1.00
N1623  N     0.38776   0.44662   0.35814   0.12311  Uiso   1.00
H1624  H     0.29138   0.31782   0.38041   0.12311  Uiso   0.00
C1625  C     0.27702   0.34326   0.41552   0.12311  Uiso   1.00
C1626  C     0.27517   0.30829   0.34483   0.12311  Uiso   1.00
C1627  C     0.28398   0.32167   0.38029   0.12311  Uiso   1.00
C1628  C     0.29878   0.31396   0.38052   0.12311  Uiso   1.00
C1629  C     0.32082   0.34132   0.40369   0.12311  Uiso   1.00
C1630  C     0.30711   0.34279   0.40920   0.12311  Uiso   1.00
N1631  N     0.26391   0.34323   0.40182   0.12311  Uiso   1.00
N1632  N     0.26276   0.32162   0.35814   0.12311  Uiso   1.00
H1633  H     0.41638   0.30718   0.25541   0.12311  Uiso   0.00
C1634  C     0.40202   0.28174   0.29052   0.12311  Uiso   1.00
C1635  C     0.40017   0.31671   0.46983   0.12311  Uiso   1.00
C1636  C     0.40898   0.30333   0.25529   0.12311  Uiso   1.00
C1637  C     0.42378   0.31104   0.25552   0.12311  Uiso   1.00
C1638  C     0.44582   0.28368   0.27869   0.12311  Uiso   1.00
C1639  C     0.43211   0.28221   0.28420   0.12311  Uiso   1.00
N1640  N     0.38891   0.28177   0.27682   0.12311  Uiso   1.00
N1641  N     0.38776   0.30338   0.48314   0.12311  Uiso   1.00
H1642  H     0.29138   0.43218   0.25541   0.12311  Uiso   0.00
C1643  C     0.27702   0.40674   0.29052   0.12311  Uiso   1.00
C1644  C     0.27517   0.44171   0.46983   0.12311  Uiso   1.00
C1645  C     0.28398   0.42833   0.25529   0.12311  Uiso   1.00
C1646  C     0.29878   0.43604   0.25552   0.12311  Uiso   1.00
C1647  C     0.32082   0.40868   0.27869   0.12311  Uiso   1.00
C1648  C     0.30711   0.40721   0.28420   0.12311  Uiso   1.00
N1649  N     0.26391   0.40677   0.27682   0.12311  Uiso   1.00
N1650  N     0.26276   0.42838   0.48314   0.12311  Uiso   1.00
H1651  H     0.33362   0.30718   0.36959   0.12311  Uiso   0.00
C1652  C     0.34798   0.28174   0.33448   0.12311  Uiso   1.00
C1653  C     0.34983   0.31671   0.40517   0.12311  Uiso   1.00
C1654  C     0.34102   0.30333   0.36971   0.12311  Uiso   1.00
C1655  C     0.32622   0.31104   0.36948   0.12311  Uiso   1.00
C1656  C     0.30418   0.28368   0.34631   0.12311  Uiso   1.00
C1657  C     0.31789   0.28221   0.34080   0.12311  Uiso   1.00
N1658  N     0.36109   0.28177   0.34818   0.12311  Uiso   1.00
N1659  N     0.36224   0.30338   0.39186   0.12311  Uiso   1.00
H1660  H     0.45862   0.43218   0.36959   0.12311  Uiso   0.00
C1661  C     0.47298   0.40674   0.33448   0.12311  Uiso   1.00
C1662  C     0.47483   0.44171   0.40517   0.12311  Uiso   1.00
C1663  C     0.46602   0.42833   0.36971   0.12311  Uiso   1.00
C1664  C     0.45122   0.43604   0.36948   0.12311  Uiso   1.00
C1665  C     0.42918   0.40868   0.34631   0.12311  Uiso   1.00
C1666  C     0.44289   0.40721   0.34080   0.12311  Uiso   1.00
N1667  N     0.48609   0.40677   0.34818   0.12311  Uiso   1.00
N1668  N     0.48724   0.42838   0.39186   0.12311  Uiso   1.00
Fe1669 Fe    0.25000   0.36461   0.31250   0.12311  Uiso   1.00
Fe1670 Fe    0.37500   0.48961   0.31250   0.12311  Uiso   1.00
Fe1671 Fe    0.25000   0.38539   0.43750   0.12311  Uiso   1.00
Fe1672 Fe    0.37500   0.26039   0.43750   0.12311  Uiso   1.00
H1673  H     0.58362   0.44282   0.49459   0.12311  Uiso   0.00
C1674  C     0.59798   0.46826   0.45948   0.12311  Uiso   1.00
C1675  C     0.59983   0.43329   0.28017   0.12311  Uiso   1.00
C1676  C     0.59102   0.44667   0.49471   0.12311  Uiso   1.00
C1677  C     0.57622   0.43896   0.49448   0.12311  Uiso   1.00
C1678  C     0.55418   0.46632   0.47131   0.12311  Uiso   1.00
C1679  C     0.56789   0.46779   0.46580   0.12311  Uiso   1.00
N1680  N     0.61109   0.46823   0.47318   0.12311  Uiso   1.00
N1681  N     0.61224   0.44662   0.26686   0.12311  Uiso   1.00
H1682  H     0.70862   0.31782   0.49459   0.12311  Uiso   0.00
C1683  C     0.72298   0.34326   0.45948   0.12311  Uiso   1.00
C1684  C     0.72483   0.30829   0.28017   0.12311  Uiso   1.00
C1685  C     0.71602   0.32167   0.49471   0.12311  Uiso   1.00
C1686  C     0.70122   0.31396   0.49448   0.12311  Uiso   1.00
C1687  C     0.67918   0.34132   0.47131   0.12311  Uiso   1.00
C1688  C     0.69289   0.34279   0.46580   0.12311  Uiso   1.00
N1689  N     0.73609   0.34323   0.47318   0.12311  Uiso   1.00
N1690  N     0.73724   0.32162   0.26686   0.12311  Uiso   1.00
H1691  H     0.66638   0.44282   0.38041   0.12311  Uiso   0.00
C1692  C     0.65202   0.46826   0.41552   0.12311  Uiso   1.00
C1693  C     0.65017   0.43329   0.34483   0.12311  Uiso   1.00
C1694  C     0.65898   0.44667   0.38029   0.12311  Uiso   1.00
C1695  C     0.67378   0.43896   0.38052   0.12311  Uiso   1.00
C1696  C     0.69582   0.46632   0.40369   0.12311  Uiso   1.00
C1697  C     0.68211   0.46779   0.40920   0.12311  Uiso   1.00
N1698  N     0.63891   0.46823   0.40182   0.12311  Uiso   1.00
N1699  N     0.63776   0.44662   0.35814   0.12311  Uiso   1.00
H1700  H     0.54138   0.31782   0.38041   0.12311  Uiso   0.00
C1701  C     0.52702   0.34326   0.41552   0.12311  Uiso   1.00
C1702  C     0.52517   0.30829   0.34483   0.12311  Uiso   1.00
C1703  C     0.53398   0.32167   0.38029   0.12311  Uiso   1.00
C1704  C     0.54878   0.31396   0.38052   0.12311  Uiso   1.00
C1705  C     0.57082   0.34132   0.40369   0.12311  Uiso   1.00
C1706  C     0.55711   0.34279   0.40920   0.12311  Uiso   1.00
N1707  N     0.51391   0.34323   0.40182   0.12311  Uiso   1.00
N1708  N     0.51276   0.32162   0.35814   0.12311  Uiso   1.00
H1709  H     0.66638   0.30718   0.25541   0.12311  Uiso   0.00
C1710  C     0.65202   0.28174   0.29052   0.12311  Uiso   1.00
C1711  C     0.65017   0.31671   0.46983   0.12311  Uiso   1.00
C1712  C     0.65898   0.30333   0.25529   0.12311  Uiso   1.00
C1713  C     0.67378   0.31104   0.25552   0.12311  Uiso   1.00
C1714  C     0.69582   0.28368   0.27869   0.12311  Uiso   1.00
C1715  C     0.68211   0.28221   0.28420   0.12311  Uiso   1.00
N1716  N     0.63891   0.28177   0.27682   0.12311  Uiso   1.00
N1717  N     0.63776   0.30338   0.48314   0.12311  Uiso   1.00
H1718  H     0.54138   0.43218   0.25541   0.12311  Uiso   0.00
C1719  C     0.52702   0.40674   0.29052   0.12311  Uiso   1.00
C1720  C     0.52517   0.44171   0.46983   0.12311  Uiso   1.00
C1721  C     0.53398   0.42833   0.25529   0.12311  Uiso   1.00
C1722  C     0.54878   0.43604   0.25552   0.12311  Uiso   1.00
C1723  C     0.57082   0.40868   0.27869   0.12311  Uiso   1.00
C1724  C     0.55711   0.40721   0.28420   0.12311  Uiso   1.00
N1725  N     0.51391   0.40677   0.27682   0.12311  Uiso   1.00
N1726  N     0.51276   0.42838   0.48314   0.12311  Uiso   1.00
H1727  H     0.58362   0.30718   0.36959   0.12311  Uiso   0.00
C1728  C     0.59798   0.28174   0.33448   0.12311  Uiso   1.00
C1729  C     0.59983   0.31671   0.40517   0.12311  Uiso   1.00
C1730  C     0.59102   0.30333   0.36971   0.12311  Uiso   1.00
C1731  C     0.57622   0.31104   0.36948   0.12311  Uiso   1.00
C1732  C     0.55418   0.28368   0.34631   0.12311  Uiso   1.00
C1733  C     0.56789   0.28221   0.34080   0.12311  Uiso   1.00
N1734  N     0.61109   0.28177   0.34818   0.12311  Uiso   1.00
N1735  N     0.61224   0.30338   0.39186   0.12311  Uiso   1.00
H1736  H     0.70862   0.43218   0.36959   0.12311  Uiso   0.00
C1737  C     0.72298   0.40674   0.33448   0.12311  Uiso   1.00
C1738  C     0.72483   0.44171   0.40517   0.12311  Uiso   1.00
C1739  C     0.71602   0.42833   0.36971   0.12311  Uiso   1.00
C1740  C     0.70122   0.43604   0.36948   0.12311  Uiso   1.00
C1741  C     0.67918   0.40868   0.34631   0.12311  Uiso   1.00
C1742  C     0.69289   0.40721   0.34080   0.12311  Uiso   1.00
N1743  N     0.73609   0.40677   0.34818   0.12311  Uiso   1.00
N1744  N     0.73724   0.42838   0.39186   0.12311  Uiso   1.00
Fe1745 Fe    0.50000   0.36461   0.31250   0.12311  Uiso   1.00
Fe1746 Fe    0.62500   0.48961   0.31250   0.12311  Uiso   1.00
Fe1747 Fe    0.50000   0.38539   0.43750   0.12311  Uiso   1.00
Fe1748 Fe    0.62500   0.26039   0.43750   0.12311  Uiso   1.00
H1749  H     0.83362   0.44282   0.49459   0.12311  Uiso   0.00
C1750  C     0.84798   0.46826   0.45948   0.12311  Uiso   1.00
C1751  C     0.84983   0.43329   0.28017   0.12311  Uiso   1.00
C1752  C     0.84102   0.44667   0.49471   0.12311  Uiso   1.00
C1753  C     0.82622   0.43896   0.49448   0.12311  Uiso   1.00
C1754  C     0.80418   0.46632   0.47131   0.12311  Uiso   1.00
C1755  C     0.81789   0.46779   0.46580   0.12311  Uiso   1.00
N1756  N     0.86109   0.46823   0.47318   0.12311  Uiso   1.00
N1757  N     0.86224   0.44662   0.26686   0.12311  Uiso   1.00
H1758  H     0.95862   0.31782   0.49459   0.12311  Uiso   0.00
C1759  C     0.97298   0.34326   0.45948   0.12311  Uiso   1.00
C1760  C     0.97483   0.30829   0.28017   0.12311  Uiso   1.00
C1761  C     0.96602   0.32167   0.49471   0.12311  Uiso   1.00
C1762  C     0.95122   0.31396   0.49448   0.12311  Uiso   1.00
C1763  C     0.92918   0.34132   0.47131   0.12311  Uiso   1.00
C1764  C     0.94289   0.34279   0.46580   0.12311  Uiso   1.00
N1765  N     0.98609   0.34323   0.47318   0.12311  Uiso   1.00
N1766  N     0.98724   0.32162   0.26686   0.12311  Uiso   1.00
H1767  H     0.91638   0.44282   0.38041   0.12311  Uiso   0.00
C1768  C     0.90202   0.46826   0.41552   0.12311  Uiso   1.00
C1769  C     0.90017   0.43329   0.34483   0.12311  Uiso   1.00
C1770  C     0.90898   0.44667   0.38029   0.12311  Uiso   1.00
C1771  C     0.92378   0.43896   0.38052   0.12311  Uiso   1.00
C1772  C     0.94582   0.46632   0.40369   0.12311  Uiso   1.00
C1773  C     0.93211   0.46779   0.40920   0.12311  Uiso   1.00
N1774  N     0.88891   0.46823   0.40182   0.12311  Uiso   1.00
N1775  N     0.88776   0.44662   0.35814   0.12311  Uiso   1.00
H1776  H     0.79138   0.31782   0.38041   0.12311  Uiso   0.00
C1777  C     0.77702   0.34326   0.41552   0.12311  Uiso   1.00
C1778  C     0.77517   0.30829   0.34483   0.12311  Uiso   1.00
C1779  C     0.78398   0.32167   0.38029   0.12311  Uiso   1.00
C1780  C     0.79878   0.31396   0.38052   0.12311  Uiso   1.00
C1781  C     0.82082   0.34132   0.40369   0.12311  Uiso   1.00
C1782  C     0.80711   0.34279   0.40920   0.12311  Uiso   1.00
N1783  N     0.76391   0.34323   0.40182   0.12311  Uiso   1.00
N1784  N     0.76276   0.32162   0.35814   0.12311  Uiso   1.00
H1785  H     0.91638   0.30718   0.25541   0.12311  Uiso   0.00
C1786  C     0.90202   0.28174   0.29052   0.12311  Uiso   1.00
C1787  C     0.90017   0.31671   0.46983   0.12311  Uiso   1.00
C1788  C     0.90898   0.30333   0.25529   0.12311  Uiso   1.00
C1789  C     0.92378   0.31104   0.25552   0.12311  Uiso   1.00
C1790  C     0.94582   0.28368   0.27869   0.12311  Uiso   1.00
C1791  C     0.93211   0.28221   0.28420   0.12311  Uiso   1.00
N1792  N     0.88891   0.28177   0.27682   0.12311  Uiso   1.00
N1793  N     0.88776   0.30338   0.48314   0.12311  Uiso   1.00
H1794  H     0.79138   0.43218   0.25541   0.12311  Uiso   0.00
C1795  C     0.77702   0.40674   0.29052   0.12311  Uiso   1.00
C1796  C     0.77517   0.44171   0.46983   0.12311  Uiso   1.00
C1797  C     0.78398   0.42833   0.25529   0.12311  Uiso   1.00
C1798  C     0.79878   0.43604   0.25552   0.12311  Uiso   1.00
C1799  C     0.82082   0.40868   0.27869   0.12311  Uiso   1.00
C1800  C     0.80711   0.40721   0.28420   0.12311  Uiso   1.00
N1801  N     0.76391   0.40677   0.27682   0.12311  Uiso   1.00
N1802  N     0.76276   0.42838   0.48314   0.12311  Uiso   1.00
H1803  H     0.83362   0.30718   0.36959   0.12311  Uiso   0.00
C1804  C     0.84798   0.28174   0.33448   0.12311  Uiso   1.00
C1805  C     0.84983   0.31671   0.40517   0.12311  Uiso   1.00
C1806  C     0.84102   0.30333   0.36971   0.12311  Uiso   1.00
C1807  C     0.82622   0.31104   0.36948   0.12311  Uiso   1.00
C1808  C     0.80418   0.28368   0.34631   0.12311  Uiso   1.00
C1809  C     0.81789   0.28221   0.34080   0.12311  Uiso   1.00
N1810  N     0.86109   0.28177   0.34818   0.12311  Uiso   1.00
N1811  N     0.86224   0.30338   0.39186   0.12311  Uiso   1.00
H1812  H     0.95862   0.43218   0.36959   0.12311  Uiso   0.00
C1813  C     0.97298   0.40674   0.33448   0.12311  Uiso   1.00
C1814  C     0.97483   0.44171   0.40517   0.12311  Uiso   1.00
C1815  C     0.96602   0.42833   0.36971   0.12311  Uiso   1.00
C1816  C     0.95122   0.43604   0.36948   0.12311  Uiso   1.00
C1817  C     0.92918   0.40868   0.34631   0.12311  Uiso   1.00
C1818  C     0.94289   0.40721   0.34080   0.12311  Uiso   1.00
N1819  N     0.98609   0.40677   0.34818   0.12311  Uiso   1.00
N1820  N     0.98724   0.42838   0.39186   0.12311  Uiso   1.00
Fe1821 Fe    0.75000   0.36461   0.31250   0.12311  Uiso   1.00
Fe1822 Fe    0.87500   0.48961   0.31250   0.12311  Uiso   1.00
Fe1823 Fe    0.75000   0.38539   0.43750   0.12311  Uiso   1.00
Fe1824 Fe    0.87500   0.26039   0.43750   0.12311  Uiso   1.00
H1825  H     0.08362   0.69282   0.49459   0.12311  Uiso   0.00
C1826  C     0.09798   0.71826   0.45948   0.12311  Uiso   1.00
C1827  C     0.09983   0.68329   0.28017   0.12311  Uiso   1.00
C1828  C     0.09102   0.69667   0.49471   0.12311  Uiso   1.00
C1829  C     0.07622   0.68896   0.49448   0.12311  Uiso   1.00
C1830  C     0.05418   0.71632   0.47131   0.12311  Uiso   1.00
C1831  C     0.06789   0.71779   0.46580   0.12311  Uiso   1.00
N1832  N     0.11109   0.71823   0.47318   0.12311  Uiso   1.00
N1833  N     0.11224   0.69662   0.26686   0.12311  Uiso   1.00
H1834  H     0.20862   0.56782   0.49459   0.12311  Uiso   0.00
C1835  C     0.22298   0.59326   0.45948   0.12311  Uiso   1.00
C1836  C     0.22483   0.55829   0.28017   0.12311  Uiso   1.00
C1837  C     0.21602   0.57167   0.49471   0.12311  Uiso   1.00
C1838  C     0.20122   0.56396   0.49448   0.12311  Uiso   1.00
C1839  C     0.17918   0.59132   0.47131   0.12311  Uiso   1.00
C1840  C     0.19289   0.59279   0.46580   0.12311  Uiso   1.00
N1841  N     0.23609   0.59323   0.47318   0.12311  Uiso   1.00
N1842  N     0.23724   0.57162   0.26686   0.12311  Uiso   1.00
H1843  H     0.16638   0.69282   0.38041   0.12311  Uiso   0.00
C1844  C     0.15202   0.71826   0.41552   0.12311  Uiso   1.00
C1845  C     0.15017   0.68329   0.34483   0.12311  Uiso   1.00
C1846  C     0.15898   0.69667   0.38029   0.12311  Uiso   1.00
C1847  C     0.17378   0.68896   0.38052   0.12311  Uiso   1.00
C1848  C     0.19582   0.71632   0.40369   0.12311  Uiso   1.00
C1849  C     0.18211   0.71779   0.40920   0.12311  Uiso   1.00
N1850  N     0.13891   0.71823   0.40182   0.12311  Uiso   1.00
N1851  N     0.13776   0.69662   0.35814   0.12311  Uiso   1.00
H1852  H     0.04138   0.56782   0.38041   0.12311  Uiso   0.00
C1853  C     0.02702   0.59326   0.41552   0.12311  Uiso   1.00
C1854  C     0.02517   0.55829   0.34483   0.12311  Uiso   1.00
C1855  C     0.03398   0.57167   0.38029   0.12311  Uiso   1.00
C1856  C     0.04878   0.56396   0.38052   0.12311  Uiso   1.00
C1857  C     0.07082   0.59132   0.40369   0.12311  Uiso   1.00
C1858  C     0.05711   0.59279   0.40920   0.12311  Uiso   1.00
N1859  N     0.01391   0.59323   0.40182   0.12311  Uiso   1.00
N1860  N     0.01276   0.57162   0.35814   0.12311  Uiso   1.00
H1861  H     0.16638   0.55718   0.25541   0.12311  Uiso   0.00
C1862  C     0.15202   0.53174   0.29052   0.12311  Uiso   1.00
C1863  C     0.15017   0.56671   0.46983   0.12311  Uiso   1.00
C1864  C     0.15898   0.55333   0.25529   0.12311  Uiso   1.00
C1865  C     0.17378   0.56104   0.25552   0.12311  Uiso   1.00
C1866  C     0.19582   0.53368   0.27869   0.12311  Uiso   1.00
C1867  C     0.18211   0.53221   0.28420   0.12311  Uiso   1.00
N1868  N     0.13891   0.53177   0.27682   0.12311  Uiso   1.00
N1869  N     0.13776   0.55338   0.48314   0.12311  Uiso   1.00
H1870  H     0.04138   0.68218   0.25541   0.12311  Uiso   0.00
C1871  C     0.02702   0.65674   0.29052   0.12311  Uiso   1.00
C1872  C     0.02517   0.69171   0.46983   0.12311  Uiso   1.00
C1873  C     0.03398   0.67833   0.25529   0.12311  Uiso   1.00
C1874  C     0.04878   0.68604   0.25552   0.12311  Uiso   1.00
C1875  C     0.07082   0.65868   0.27869   0.12311  Uiso   1.00
C1876  C     0.05711   0.65721   0.28420   0.12311  Uiso   1.00
N1877  N     0.01391   0.65677   0.27682   0.12311  Uiso   1.00
N1878  N     0.01276   0.67838   0.48314   0.12311  Uiso   1.00
H1879  H     0.08362   0.55718   0.36959   0.12311  Uiso   0.00
C1880  C     0.09798   0.53174   0.33448   0.12311  Uiso   1.00
C1881  C     0.09983   0.56671   0.40517   0.12311  Uiso   1.00
C1882  C     0.09102   0.55333   0.36971   0.12311  Uiso   1.00
C1883  C     0.07622   0.56104   0.36948   0.12311  Uiso   1.00
C1884  C     0.05418   0.53368   0.34631   0.12311  Uiso   1.00
C1885  C     0.06789   0.53221   0.34080   0.12311  Uiso   1.00
N1886  N     0.11109   0.53177   0.34818   0.12311  Uiso   1.00
N1887  N     0.11224   0.55338   0.39186   0.12311  Uiso   1.00
H1888  H     0.20862   0.68218   0.36959   0.12311  Uiso   0.00
C1889  C     0.22298   0.65674   0.33448   0.12311  Uiso   1.00
C1890  C     0.22483   0.69171   0.40517   0.12311  Uiso   1.00
C1891  C     0.21602   0.67833   0.36971   0.12311  Uiso   1.00
C1892  C     0.20122   0.68604   0.36948   0.12311  Uiso   1.00
C1893  C     0.17918   0.65868   0.34631   0.12311  Uiso   1.00
C1894  C     0.19289   0.65721   0.34080   0.12311  Uiso   1.00
N1895  N     0.23609   0.65677   0.34818   0.12311  Uiso   1.00
N1896  N     0.23724   0.67838   0.39186   0.12311  Uiso   1.00
Fe1897 Fe    0.00000   0.61461   0.31250   0.12311  Uiso   1.00
Fe1898 Fe    0.12500   0.73961   0.31250   0.12311  Uiso   1.00
Fe1899 Fe    0.00000   0.63539   0.43750   0.12311  Uiso   1.00
Fe1900 Fe    0.12500   0.51039   0.43750   0.12311  Uiso   1.00
H1901  H     0.33362   0.69282   0.49459   0.12311  Uiso   0.00
C1902  C     0.34798   0.71826   0.45948   0.12311  Uiso   1.00
C1903  C     0.34983   0.68329   0.28017   0.12311  Uiso   1.00
C1904  C     0.34102   0.69667   0.49471   0.12311  Uiso   1.00
C1905  C     0.32622   0.68896   0.49448   0.12311  Uiso   1.00
C1906  C     0.30418   0.71632   0.47131   0.12311  Uiso   1.00
C1907  C     0.31789   0.71779   0.46580   0.12311  Uiso   1.00
N1908  N     0.36109   0.71823   0.47318   0.12311  Uiso   1.00
N1909  N     0.36224   0.69662   0.26686   0.12311  Uiso   1.00
H1910  H     0.45862   0.56782   0.49459   0.12311  Uiso   0.00
C1911  C     0.47298   0.59326   0.45948   0.12311  Uiso   1.00
C1912  C     0.47483   0.55829   0.28017   0.12311  Uiso   1.00
C1913  C     0.46602   0.57167   0.49471   0.12311  Uiso   1.00
C1914  C     0.45122   0.56396   0.49448   0.12311  Uiso   1.00
C1915  C     0.42918   0.59132   0.47131   0.12311  Uiso   1.00
C1916  C     0.44289   0.59279   0.46580   0.12311  Uiso   1.00
N1917  N     0.48609   0.59323   0.47318   0.12311  Uiso   1.00
N1918  N     0.48724   0.57162   0.26686   0.12311  Uiso   1.00
H1919  H     0.41638   0.69282   0.38041   0.12311  Uiso   0.00
C1920  C     0.40202   0.71826   0.41552   0.12311  Uiso   1.00
C1921  C     0.40017   0.68329   0.34483   0.12311  Uiso   1.00
C1922  C     0.40898   0.69667   0.38029   0.12311  Uiso   1.00
C1923  C     0.42378   0.68896   0.38052   0.12311  Uiso   1.00
C1924  C     0.44582   0.71632   0.40369   0.12311  Uiso   1.00
C1925  C     0.43211   0.71779   0.40920   0.12311  Uiso   1.00
N1926  N     0.38891   0.71823   0.40182   0.12311  Uiso   1.00
N1927  N     0.38776   0.69662   0.35814   0.12311  Uiso   1.00
H1928  H     0.29138   0.56782   0.38041   0.12311  Uiso   0.00
C1929  C     0.27702   0.59326   0.41552   0.12311  Uiso   1.00
C1930  C     0.27517   0.55829   0.34483   0.12311  Uiso   1.00
C1931  C     0.28398   0.57167   0.38029   0.12311  Uiso   1.00
C1932  C     0.29878   0.56396   0.38052   0.12311  Uiso   1.00
C1933  C     0.32082   0.59132   0.40369   0.12311  Uiso   1.00
C1934  C     0.30711   0.59279   0.40920   0.12311  Uiso   1.00
N1935  N     0.26391   0.59323   0.40182   0.12311  Uiso   1.00
N1936  N     0.26276   0.57162   0.35814   0.12311  Uiso   1.00
H1937  H     0.41638   0.55718   0.25541   0.12311  Uiso   0.00
C1938  C     0.40202   0.53174   0.29052   0.12311  Uiso   1.00
C1939  C     0.40017   0.56671   0.46983   0.12311  Uiso   1.00
C1940  C     0.40898   0.55333   0.25529   0.12311  Uiso   1.00
C1941  C     0.42378   0.56104   0.25552   0.12311  Uiso   1.00
C1942  C     0.44582   0.53368   0.27869   0.12311  Uiso   1.00
C1943  C     0.43211   0.53221   0.28420   0.12311  Uiso   1.00
N1944  N     0.38891   0.53177   0.27682   0.12311  Uiso   1.00
N1945  N     0.38776   0.55338   0.48314   0.12311  Uiso   1.00
H1946  H     0.29138   0.68218   0.25541   0.12311  Uiso   0.00
C1947  C     0.27702   0.65674   0.29052   0.12311  Uiso   1.00
C1948  C     0.27517   0.69171   0.46983   0.12311  Uiso   1.00
C1949  C     0.28398   0.67833   0.25529   0.12311  Uiso   1.00
C1950  C     0.29878   0.68604   0.25552   0.12311  Uiso   1.00
C1951  C     0.32082   0.65868   0.27869   0.12311  Uiso   1.00
C1952  C     0.30711   0.65721   0.28420   0.12311  Uiso   1.00
N1953  N     0.26391   0.65677   0.27682   0.12311  Uiso   1.00
N1954  N     0.26276   0.67838   0.48314   0.12311  Uiso   1.00
H1955  H     0.33362   0.55718   0.36959   0.12311  Uiso   0.00
C1956  C     0.34798   0.53174   0.33448   0.12311  Uiso   1.00
C1957  C     0.34983   0.56671   0.40517   0.12311  Uiso   1.00
C1958  C     0.34102   0.55333   0.36971   0.12311  Uiso   1.00
C1959  C     0.32622   0.56104   0.36948   0.12311  Uiso   1.00
C1960  C     0.30418   0.53368   0.34631   0.12311  Uiso   1.00
C1961  C     0.31789   0.53221   0.34080   0.12311  Uiso   1.00
N1962  N     0.36109   0.53177   0.34818   0.12311  Uiso   1.00
N1963  N     0.36224   0.55338   0.39186   0.12311  Uiso   1.00
H1964  H     0.45862   0.68218   0.36959   0.12311  Uiso   0.00
C1965  C     0.47298   0.65674   0.33448   0.12311  Uiso   1.00
C1966  C     0.47483   0.69171   0.40517   0.12311  Uiso   1.00
C1967  C     0.46602   0.67833   0.36971   0.12311  Uiso   1.00
C1968  C     0.45122   0.68604   0.36948   0.12311  Uiso   1.00
C1969  C     0.42918   0.65868   0.34631   0.12311  Uiso   1.00
C1970  C     0.44289   0.65721   0.34080   0.12311  Uiso   1.00
N1971  N     0.48609   0.65677   0.34818   0.12311  Uiso   1.00
N1972  N     0.48724   0.67838   0.39186   0.12311  Uiso   1.00
Fe1973 Fe    0.25000   0.61461   0.31250   0.12311  Uiso   1.00
Fe1974 Fe    0.37500   0.73961   0.31250   0.12311  Uiso   1.00
Fe1975 Fe    0.25000   0.63539   0.43750   0.12311  Uiso   1.00
Fe1976 Fe    0.37500   0.51039   0.43750   0.12311  Uiso   1.00
H1977  H     0.58362   0.69282   0.49459   0.12311  Uiso   0.00
C1978  C     0.59798   0.71826   0.45948   0.12311  Uiso   1.00
C1979  C     0.59983   0.68329   0.28017   0.12311  Uiso   1.00
C1980  C     0.59102   0.69667   0.49471   0.12311  Uiso   1.00
C1981  C     0.57622   0.68896   0.49448   0.12311  Uiso   1.00
C1982  C     0.55418   0.71632   0.47131   0.12311  Uiso   1.00
C1983  C     0.56789   0.71779   0.46580   0.12311  Uiso   1.00
N1984  N     0.61109   0.71823   0.47318   0.12311  Uiso   1.00
N1985  N     0.61224   0.69662   0.26686   0.12311  Uiso   1.00
H1986  H     0.70862   0.56782   0.49459   0.12311  Uiso   0.00
C1987  C     0.72298   0.59326   0.45948   0.12311  Uiso   1.00
C1988  C     0.72483   0.55829   0.28017   0.12311  Uiso   1.00
C1989  C     0.71602   0.57167   0.49471   0.12311  Uiso   1.00
C1990  C     0.70122   0.56396   0.49448   0.12311  Uiso   1.00
C1991  C     0.67918   0.59132   0.47131   0.12311  Uiso   1.00
C1992  C     0.69289   0.59279   0.46580   0.12311  Uiso   1.00
N1993  N     0.73609   0.59323   0.47318   0.12311  Uiso   1.00
N1994  N     0.73724   0.57162   0.26686   0.12311  Uiso   1.00
H1995  H     0.66638   0.69282   0.38041   0.12311  Uiso   0.00
C1996  C     0.65202   0.71826   0.41552   0.12311  Uiso   1.00
C1997  C     0.65017   0.68329   0.34483   0.12311  Uiso   1.00
C1998  C     0.65898   0.69667   0.38029   0.12311  Uiso   1.00
C1999  C     0.67378   0.68896   0.38052   0.12311  Uiso   1.00
C2000  C     0.69582   0.71632   0.40369   0.12311  Uiso   1.00
C2001  C     0.68211   0.71779   0.40920   0.12311  Uiso   1.00
N2002  N     0.63891   0.71823   0.40182   0.12311  Uiso   1.00
N2003  N     0.63776   0.69662   0.35814   0.12311  Uiso   1.00
H2004  H     0.54138   0.56782   0.38041   0.12311  Uiso   0.00
C2005  C     0.52702   0.59326   0.41552   0.12311  Uiso   1.00
C2006  C     0.52517   0.55829   0.34483   0.12311  Uiso   1.00
C2007  C     0.53398   0.57167   0.38029   0.12311  Uiso   1.00
C2008  C     0.54878   0.56396   0.38052   0.12311  Uiso   1.00
C2009  C     0.57082   0.59132   0.40369   0.12311  Uiso   1.00
C2010  C     0.55711   0.59279   0.40920   0.12311  Uiso   1.00
N2011  N     0.51391   0.59323   0.40182   0.12311  Uiso   1.00
N2012  N     0.51276   0.57162   0.35814   0.12311  Uiso   1.00
H2013  H     0.66638   0.55718   0.25541   0.12311  Uiso   0.00
C2014  C     0.65202   0.53174   0.29052   0.12311  Uiso   1.00
C2015  C     0.65017   0.56671   0.46983   0.12311  Uiso   1.00
C2016  C     0.65898   0.55333   0.25529   0.12311  Uiso   1.00
C2017  C     0.67378   0.56104   0.25552   0.12311  Uiso   1.00
C2018  C     0.69582   0.53368   0.27869   0.12311  Uiso   1.00
C2019  C     0.68211   0.53221   0.28420   0.12311  Uiso   1.00
N2020  N     0.63891   0.53177   0.27682   0.12311  Uiso   1.00
N2021  N     0.63776   0.55338   0.48314   0.12311  Uiso   1.00
H2022  H     0.54138   0.68218   0.25541   0.12311  Uiso   0.00
C2023  C     0.52702   0.65674   0.29052   0.12311  Uiso   1.00
C2024  C     0.52517   0.69171   0.46983   0.12311  Uiso   1.00
C2025  C     0.53398   0.67833   0.25529   0.12311  Uiso   1.00
C2026  C     0.54878   0.68604   0.25552   0.12311  Uiso   1.00
C2027  C     0.57082   0.65868   0.27869   0.12311  Uiso   1.00
C2028  C     0.55711   0.65721   0.28420   0.12311  Uiso   1.00
N2029  N     0.51391   0.65677   0.27682   0.12311  Uiso   1.00
N2030  N     0.51276   0.67838   0.48314   0.12311  Uiso   1.00
H2031  H     0.58362   0.55718   0.36959   0.12311  Uiso   0.00
C2032  C     0.59798   0.53174   0.33448   0.12311  Uiso   1.00
C2033  C     0.59983   0.56671   0.40517   0.12311  Uiso   1.00
C2034  C     0.59102   0.55333   0.36971   0.12311  Uiso   1.00
C2035  C     0.57622   0.56104   0.36948   0.12311  Uiso   1.00
C2036  C     0.55418   0.53368   0.34631   0.12311  Uiso   1.00
C2037  C     0.56789   0.53221   0.34080   0.12311  Uiso   1.00
N2038  N     0.61109   0.53177   0.34818   0.12311  Uiso   1.00
N2039  N     0.61224   0.55338   0.39186   0.12311  Uiso   1.00
H2040  H     0.70862   0.68218   0.36959   0.12311  Uiso   0.00
C2041  C     0.72298   0.65674   0.33448   0.12311  Uiso   1.00
C2042  C     0.72483   0.69171   0.40517   0.12311  Uiso   1.00
C2043  C     0.71602   0.67833   0.36971   0.12311  Uiso   1.00
C2044  C     0.70122   0.68604   0.36948   0.12311  Uiso   1.00
C2045  C     0.67918   0.65868   0.34631   0.12311  Uiso   1.00
C2046  C     0.69289   0.65721   0.34080   0.12311  Uiso   1.00
N2047  N     0.73609   0.65677   0.34818   0.12311  Uiso   1.00
N2048  N     0.73724   0.67838   0.39186   0.12311  Uiso   1.00
Fe2049 Fe    0.50000   0.61461   0.31250   0.12311  Uiso   1.00
Fe2050 Fe    0.62500   0.73961   0.31250   0.12311  Uiso   1.00
Fe2051 Fe    0.50000   0.63539   0.43750   0.12311  Uiso   1.00
Fe2052 Fe    0.62500   0.51039   0.43750   0.12311  Uiso   1.00
H2053  H     0.83362   0.69282   0.49459   0.12311  Uiso   0.00
C2054  C     0.84798   0.71826   0.45948   0.12311  Uiso   1.00
C2055  C     0.84983   0.68329   0.28017   0.12311  Uiso   1.00
C2056  C     0.84102   0.69667   0.49471   0.12311  Uiso   1.00
C2057  C     0.82622   0.68896   0.49448   0.12311  Uiso   1.00
C2058  C     0.80418   0.71632   0.47131   0.12311  Uiso   1.00
C2059  C     0.81789   0.71779   0.46580   0.12311  Uiso   1.00
N2060  N     0.86109   0.71823   0.47318   0.12311  Uiso   1.00
N2061  N     0.86224   0.69662   0.26686   0.12311  Uiso   1.00
H2062  H     0.95862   0.56782   0.49459   0.12311  Uiso   0.00
C2063  C     0.97298   0.59326   0.45948   0.12311  Uiso   1.00
C2064  C     0.97483   0.55829   0.28017   0.12311  Uiso   1.00
C2065  C     0.96602   0.57167   0.49471   0.12311  Uiso   1.00
C2066  C     0.95122   0.56396   0.49448   0.12311  Uiso   1.00
C2067  C     0.92918   0.59132   0.47131   0.12311  Uiso   1.00
C2068  C     0.94289   0.59279   0.46580   0.12311  Uiso   1.00
N2069  N     0.98609   0.59323   0.47318   0.12311  Uiso   1.00
N2070  N     0.98724   0.57162   0.26686   0.12311  Uiso   1.00
H2071  H     0.91638   0.69282   0.38041   0.12311  Uiso   0.00
C2072  C     0.90202   0.71826   0.41552   0.12311  Uiso   1.00
C2073  C     0.90017   0.68329   0.34483   0.12311  Uiso   1.00
C2074  C     0.90898   0.69667   0.38029   0.12311  Uiso   1.00
C2075  C     0.92378   0.68896   0.38052   0.12311  Uiso   1.00
C2076  C     0.94582   0.71632   0.40369   0.12311  Uiso   1.00
C2077  C     0.93211   0.71779   0.40920   0.12311  Uiso   1.00
N2078  N     0.88891   0.71823   0.40182   0.12311  Uiso   1.00
N2079  N     0.88776   0.69662   0.35814   0.12311  Uiso   1.00
H2080  H     0.79138   0.56782   0.38041   0.12311  Uiso   0.00
C2081  C     0.77702   0.59326   0.41552   0.12311  Uiso   1.00
C2082  C     0.77517   0.55829   0.34483   0.12311  Uiso   1.00
C2083  C     0.78398   0.57167   0.38029   0.12311  Uiso   1.00
C2084  C     0.79878   0.56396   0.38052   0.12311  Uiso   1.00
C2085  C     0.82082   0.59132   0.40369   0.12311  Uiso   1.00
C2086  C     0.80711   0.59279   0.40920   0.12311  Uiso   1.00
N2087  N     0.76391   0.59323   0.40182   0.12311  Uiso   1.00
N2088  N     0.76276   0.57162   0.35814   0.12311  Uiso   1.00
H2089  H     0.91638   0.55718   0.25541   0.12311  Uiso   0.00
C2090  C     0.90202   0.53174   0.29052   0.12311  Uiso   1.00
C2091  C     0.90017   0.56671   0.46983   0.12311  Uiso   1.00
C2092  C     0.90898   0.55333   0.25529   0.12311  Uiso   1.00
C2093  C     0.92378   0.56104   0.25552   0.12311  Uiso   1.00
C2094  C     0.94582   0.53368   0.27869   0.12311  Uiso   1.00
C2095  C     0.93211   0.53221   0.28420   0.12311  Uiso   1.00
N2096  N     0.88891   0.53177   0.27682   0.12311  Uiso   1.00
N2097  N     0.88776   0.55338   0.48314   0.12311  Uiso   1.00
H2098  H     0.79138   0.68218   0.25541   0.12311  Uiso   0.00
C2099  C     0.77702   0.65674   0.29052   0.12311  Uiso   1.00
C2100  C     0.77517   0.69171   0.46983   0.12311  Uiso   1.00
C2101  C     0.78398   0.67833   0.25529   0.12311  Uiso   1.00
C2102  C     0.79878   0.68604   0.25552   0.12311  Uiso   1.00
C2103  C     0.82082   0.65868   0.27869   0.12311  Uiso   1.00
C2104  C     0.80711   0.65721   0.28420   0.12311  Uiso   1.00
N2105  N     0.76391   0.65677   0.27682   0.12311  Uiso   1.00
N2106  N     0.76276   0.67838   0.48314   0.12311  Uiso   1.00
H2107  H     0.83362   0.55718   0.36959   0.12311  Uiso   0.00
C2108  C     0.84798   0.53174   0.33448   0.12311  Uiso   1.00
C2109  C     0.84983   0.56671   0.40517   0.12311  Uiso   1.00
C2110  C     0.84102   0.55333   0.36971   0.12311  Uiso   1.00
C2111  C     0.82622   0.56104   0.36948   0.12311  Uiso   1.00
C2112  C     0.80418   0.53368   0.34631   0.12311  Uiso   1.00
C2113  C     0.81789   0.53221   0.34080   0.12311  Uiso   1.00
N2114  N     0.86109   0.53177   0.34818   0.12311  Uiso   1.00
N2115  N     0.86224   0.55338   0.39186   0.12311  Uiso   1.00
H2116  H     0.95862   0.68218   0.36959   0.12311  Uiso   0.00
C2117  C     0.97298   0.65674   0.33448   0.12311  Uiso   1.00
C2118  C     0.97483   0.69171   0.40517   0.12311  Uiso   1.00
C2119  C     0.96602   0.67833   0.36971   0.12311  Uiso   1.00
C2120  C     0.95122   0.68604   0.36948   0.12311  Uiso   1.00
C2121  C     0.92918   0.65868   0.34631   0.12311  Uiso   1.00
C2122  C     0.94289   0.65721   0.34080   0.12311  Uiso   1.00
N2123  N     0.98609   0.65677   0.34818   0.12311  Uiso   1.00
N2124  N     0.98724   0.67838   0.39186   0.12311  Uiso   1.00
Fe2125 Fe    0.75000   0.61461   0.31250   0.12311  Uiso   1.00
Fe2126 Fe    0.87500   0.73961   0.31250   0.12311  Uiso   1.00
Fe2127 Fe    0.75000   0.63539   0.43750   0.12311  Uiso   1.00
Fe2128 Fe    0.87500   0.51039   0.43750   0.12311  Uiso   1.00
H2129  H     0.08362   0.94282   0.49459   0.12311  Uiso   0.00
C2130  C     0.09798   0.96826   0.45948   0.12311  Uiso   1.00
C2131  C     0.09983   0.93329   0.28017   0.12311  Uiso   1.00
C2132  C     0.09102   0.94667   0.49471   0.12311  Uiso   1.00
C2133  C     0.07622   0.93896   0.49448   0.12311  Uiso   1.00
C2134  C     0.05418   0.96632   0.47131   0.12311  Uiso   1.00
C2135  C     0.06789   0.96779   0.46580   0.12311  Uiso   1.00
N2136  N     0.11109   0.96823   0.47318   0.12311  Uiso   1.00
N2137  N     0.11224   0.94662   0.26686   0.12311  Uiso   1.00
H2138  H     0.20862   0.81782   0.49459   0.12311  Uiso   0.00
C2139  C     0.22298   0.84326   0.45948   0.12311  Uiso   1.00
C2140  C     0.22483   0.80829   0.28017   0.12311  Uiso   1.00
C2141  C     0.21602   0.82167   0.49471   0.12311  Uiso   1.00
C2142  C     0.20122   0.81396   0.49448   0.12311  Uiso   1.00
C2143  C     0.17918   0.84132   0.47131   0.12311  Uiso   1.00
C2144  C     0.19289   0.84279   0.46580   0.12311  Uiso   1.00
N2145  N     0.23609   0.84323   0.47318   0.12311  Uiso   1.00
N2146  N     0.23724   0.82162   0.26686   0.12311  Uiso   1.00
H2147  H     0.16638   0.94282   0.38041   0.12311  Uiso   0.00
C2148  C     0.15202   0.96826   0.41552   0.12311  Uiso   1.00
C2149  C     0.15017   0.93329   0.34483   0.12311  Uiso   1.00
C2150  C     0.15898   0.94667   0.38029   0.12311  Uiso   1.00
C2151  C     0.17378   0.93896   0.38052   0.12311  Uiso   1.00
C2152  C     0.19582   0.96632   0.40369   0.12311  Uiso   1.00
C2153  C     0.18211   0.96779   0.40920   0.12311  Uiso   1.00
N2154  N     0.13891   0.96823   0.40182   0.12311  Uiso   1.00
N2155  N     0.13776   0.94662   0.35814   0.12311  Uiso   1.00
H2156  H     0.04138   0.81782   0.38041   0.12311  Uiso   0.00
C2157  C     0.02702   0.84326   0.41552   0.12311  Uiso   1.00
C2158  C     0.02517   0.80829   0.34483   0.12311  Uiso   1.00
C2159  C     0.03398   0.82167   0.38029   0.12311  Uiso   1.00
C2160  C     0.04878   0.81396   0.38052   0.12311  Uiso   1.00
C2161  C     0.07082   0.84132   0.40369   0.12311  Uiso   1.00
C2162  C     0.05711   0.84279   0.40920   0.12311  Uiso   1.00
N2163  N     0.01391   0.84323   0.40182   0.12311  Uiso   1.00
N2164  N     0.01276   0.82162   0.35814   0.12311  Uiso   1.00
H2165  H     0.16638   0.80718   0.25541   0.12311  Uiso   0.00
C2166  C     0.15202   0.78174   0.29052   0.12311  Uiso   1.00
C2167  C     0.15017   0.81671   0.46983   0.12311  Uiso   1.00
C2168  C     0.15898   0.80333   0.25529   0.12311  Uiso   1.00
C2169  C     0.17378   0.81104   0.25552   0.12311  Uiso   1.00
C2170  C     0.19582   0.78368   0.27869   0.12311  Uiso   1.00
C2171  C     0.18211   0.78221   0.28420   0.12311  Uiso   1.00
N2172  N     0.13891   0.78177   0.27682   0.12311  Uiso   1.00
N2173  N     0.13776   0.80338   0.48314   0.12311  Uiso   1.00
H2174  H     0.04138   0.93218   0.25541   0.12311  Uiso   0.00
C2175  C     0.02702   0.90674   0.29052   0.12311  Uiso   1.00
C2176  C     0.02517   0.94171   0.46983   0.12311  Uiso   1.00
C2177  C     0.03398   0.92833   0.25529   0.12311  Uiso   1.00
C2178  C     0.04878   0.93604   0.25552   0.12311  Uiso   1.00
C2179  C     0.07082   0.90868   0.27869   0.12311  Uiso   1.00
C2180  C     0.05711   0.90721   0.28420   0.12311  Uiso   1.00
N2181  N     0.01391   0.90677   0.27682   0.12311  Uiso   1.00
N2182  N     0.01276   0.92838   0.48314   0.12311  Uiso   1.00
H2183  H     0.08362   0.80718   0.36959   0.12311  Uiso   0.00
C2184  C     0.09798   0.78174   0.33448   0.12311  Uiso   1.00
C2185  C     0.09983   0.81671   0.40517   0.12311  Uiso   1.00
C2186  C     0.09102   0.80333   0.36971   0.12311  Uiso   1.00
C2187  C     0.07622   0.81104   0.36948   0.12311  Uiso   1.00
C2188  C     0.05418   0.78368   0.34631   0.12311  Uiso   1.00
C2189  C     0.06789   0.78221   0.34080   0.12311  Uiso   1.00
N2190  N     0.11109   0.78177   0.34818   0.12311  Uiso   1.00
N2191  N     0.11224   0.80338   0.39186   0.12311  Uiso   1.00
H2192  H     0.20862   0.93218   0.36959   0.12311  Uiso   0.00
C2193  C     0.22298   0.90674   0.33448   0.12311  Uiso   1.00
C2194  C     0.22483   0.94171   0.40517   0.12311  Uiso   1.00
C2195  C     0.21602   0.92833   0.36971   0.12311  Uiso   1.00
C2196  C     0.20122   0.93604   0.36948   0.12311  Uiso   1.00
C2197  C     0.17918   0.90868   0.34631   0.12311  Uiso   1.00
C2198  C     0.19289   0.90721   0.34080   0.12311  Uiso   1.00
N2199  N     0.23609   0.90677   0.34818   0.12311  Uiso   1.00
N2200  N     0.23724   0.92838   0.39186   0.12311  Uiso   1.00
Fe2201 Fe    0.00000   0.86461   0.31250   0.12311  Uiso   1.00
Fe2202 Fe    0.12500   0.98961   0.31250   0.12311  Uiso   1.00
Fe2203 Fe    0.00000   0.88539   0.43750   0.12311  Uiso   1.00
Fe2204 Fe    0.12500   0.76039   0.43750   0.12311  Uiso   1.00
H2205  H     0.33362   0.94282   0.49459   0.12311  Uiso   0.00
C2206  C     0.34798   0.96826   0.45948   0.12311  Uiso   1.00
C2207  C     0.34983   0.93329   0.28017   0.12311  Uiso   1.00
C2208  C     0.34102   0.94667   0.49471   0.12311  Uiso   1.00
C2209  C     0.32622   0.93896   0.49448   0.12311  Uiso   1.00
C2210  C     0.30418   0.96632   0.47131   0.12311  Uiso   1.00
C2211  C     0.31789   0.96779   0.46580   0.12311  Uiso   1.00
N2212  N     0.36109   0.96823   0.47318   0.12311  Uiso   1.00
N2213  N     0.36224   0.94662   0.26686   0.12311  Uiso   1.00
H2214  H     0.45862   0.81782   0.49459   0.12311  Uiso   0.00
C2215  C     0.47298   0.84326   0.45948   0.12311  Uiso   1.00
C2216  C     0.47483   0.80829   0.28017   0.12311  Uiso   1.00
C2217  C     0.46602   0.82167   0.49471   0.12311  Uiso   1.00
C2218  C     0.45122   0.81396   0.49448   0.12311  Uiso   1.00
C2219  C     0.42918   0.84132   0.47131   0.12311  Uiso   1.00
C2220  C     0.44289   0.84279   0.46580   0.12311  Uiso   1.00
N2221  N     0.48609   0.84323   0.47318   0.12311  Uiso   1.00
N2222  N     0.48724   0.82162   0.26686   0.12311  Uiso   1.00
H2223  H     0.41638   0.94282   0.38041   0.12311  Uiso   0.00
C2224  C     0.40202   0.96826   0.41552   0.12311  Uiso   1.00
C2225  C     0.40017   0.93329   0.34483   0.12311  Uiso   1.00
C2226  C     0.40898   0.94667   0.38029   0.12311  Uiso   1.00
C2227  C     0.42378   0.93896   0.38052   0.12311  Uiso   1.00
C2228  C     0.44582   0.96632   0.40369   0.12311  Uiso   1.00
C2229  C     0.43211   0.96779   0.40920   0.12311  Uiso   1.00
N2230  N     0.38891   0.96823   0.40182   0.12311  Uiso   1.00
N2231  N     0.38776   0.94662   0.35814   0.12311  Uiso   1.00
H2232  H     0.29138   0.81782   0.38041   0.12311  Uiso   0.00
C2233  C     0.27702   0.84326   0.41552   0.12311  Uiso   1.00
C2234  C     0.27517   0.80829   0.34483   0.12311  Uiso   1.00
C2235  C     0.28398   0.82167   0.38029   0.12311  Uiso   1.00
C2236  C     0.29878   0.81396   0.38052   0.12311  Uiso   1.00
C2237  C     0.32082   0.84132   0.40369   0.12311  Uiso   1.00
C2238  C     0.30711   0.84279   0.40920   0.12311  Uiso   1.00
N2239  N     0.26391   0.84323   0.40182   0.12311  Uiso   1.00
N2240  N     0.26276   0.82162   0.35814   0.12311  Uiso   1.00
H2241  H     0.41638   0.80718   0.25541   0.12311  Uiso   0.00
C2242  C     0.40202   0.78174   0.29052   0.12311  Uiso   1.00
C2243  C     0.40017   0.81671   0.46983   0.12311  Uiso   1.00
C2244  C     0.40898   0.80333   0.25529   0.12311  Uiso   1.00
C2245  C     0.42378   0.81104   0.25552   0.12311  Uiso   1.00
C2246  C     0.44582   0.78368   0.27869   0.12311  Uiso   1.00
C2247  C     0.43211   0.78221   0.28420   0.12311  Uiso   1.00
N2248  N     0.38891   0.78177   0.27682   0.12311  Uiso   1.00
N2249  N     0.38776   0.80338   0.48314   0.12311  Uiso   1.00
H2250  H     0.29138   0.93218   0.25541   0.12311  Uiso   0.00
C2251  C     0.27702   0.90674   0.29052   0.12311  Uiso   1.00
C2252  C     0.27517   0.94171   0.46983   0.12311  Uiso   1.00
C2253  C     0.28398   0.92833   0.25529   0.12311  Uiso   1.00
C2254  C     0.29878   0.93604   0.25552   0.12311  Uiso   1.00
C2255  C     0.32082   0.90868   0.27869   0.12311  Uiso   1.00
C2256  C     0.30711   0.90721   0.28420   0.12311  Uiso   1.00
N2257  N     0.26391   0.90677   0.27682   0.12311  Uiso   1.00
N2258  N     0.26276   0.92838   0.48314   0.12311  Uiso   1.00
H2259  H     0.33362   0.80718   0.36959   0.12311  Uiso   0.00
C2260  C     0.34798   0.78174   0.33448   0.12311  Uiso   1.00
C2261  C     0.34983   0.81671   0.40517   0.12311  Uiso   1.00
C2262  C     0.34102   0.80333   0.36971   0.12311  Uiso   1.00
C2263  C     0.32622   0.81104   0.36948   0.12311  Uiso   1.00
C2264  C     0.30418   0.78368   0.34631   0.12311  Uiso   1.00
C2265  C     0.31789   0.78221   0.34080   0.12311  Uiso   1.00
N2266  N     0.36109   0.78177   0.34818   0.12311  Uiso   1.00
N2267  N     0.36224   0.80338   0.39186   0.12311  Uiso   1.00
H2268  H     0.45862   0.93218   0.36959   0.12311  Uiso   0.00
C2269  C     0.47298   0.90674   0.33448   0.12311  Uiso   1.00
C2270  C     0.47483   0.94171   0.40517   0.12311  Uiso   1.00
C2271  C     0.46602   0.92833   0.36971   0.12311  Uiso   1.00
C2272  C     0.45122   0.93604   0.36948   0.12311  Uiso   1.00
C2273  C     0.42918   0.90868   0.34631   0.12311  Uiso   1.00
C2274  C     0.44289   0.90721   0.34080   0.12311  Uiso   1.00
N2275  N     0.48609   0.90677   0.34818   0.12311  Uiso   1.00
N2276  N     0.48724   0.92838   0.39186   0.12311  Uiso   1.00
Fe2277 Fe    0.25000   0.86461   0.31250   0.12311  Uiso   1.00
Fe2278 Fe    0.37500   0.98961   0.31250   0.12311  Uiso   1.00
Fe2279 Fe    0.25000   0.88539   0.43750   0.12311  Uiso   1.00
Fe2280 Fe    0.37500   0.76039   0.43750   0.12311  Uiso   1.00
H2281  H     0.58362   0.94282   0.49459   0.12311  Uiso   0.00
C2282  C     0.59798   0.96826   0.45948   0.12311  Uiso   1.00
C2283  C     0.59983   0.93329   0.28017   0.12311  Uiso   1.00
C2284  C     0.59102   0.94667   0.49471   0.12311  Uiso   1.00
C2285  C     0.57622   0.93896   0.49448   0.12311  Uiso   1.00
C2286  C     0.55418   0.96632   0.47131   0.12311  Uiso   1.00
C2287  C     0.56789   0.96779   0.46580   0.12311  Uiso   1.00
N2288  N     0.61109   0.96823   0.47318   0.12311  Uiso   1.00
N2289  N     0.61224   0.94662   0.26686   0.12311  Uiso   1.00
H2290  H     0.70862   0.81782   0.49459   0.12311  Uiso   0.00
C2291  C     0.72298   0.84326   0.45948   0.12311  Uiso   1.00
C2292  C     0.72483   0.80829   0.28017   0.12311  Uiso   1.00
C2293  C     0.71602   0.82167   0.49471   0.12311  Uiso   1.00
C2294  C     0.70122   0.81396   0.49448   0.12311  Uiso   1.00
C2295  C     0.67918   0.84132   0.47131   0.12311  Uiso   1.00
C2296  C     0.69289   0.84279   0.46580   0.12311  Uiso   1.00
N2297  N     0.73609   0.84323   0.47318   0.12311  Uiso   1.00
N2298  N     0.73724   0.82162   0.26686   0.12311  Uiso   1.00
H2299  H     0.66638   0.94282   0.38041   0.12311  Uiso   0.00
C2300  C     0.65202   0.96826   0.41552   0.12311  Uiso   1.00
C2301  C     0.65017   0.93329   0.34483   0.12311  Uiso   1.00
C2302  C     0.65898   0.94667   0.38029   0.12311  Uiso   1.00
C2303  C     0.67378   0.93896   0.38052   0.12311  Uiso   1.00
C2304  C     0.69582   0.96632   0.40369   0.12311  Uiso   1.00
C2305  C     0.68211   0.96779   0.40920   0.12311  Uiso   1.00
N2306  N     0.63891   0.96823   0.40182   0.12311  Uiso   1.00
N2307  N     0.63776   0.94662   0.35814   0.12311  Uiso   1.00
H2308  H     0.54138   0.81782   0.38041   0.12311  Uiso   0.00
C2309  C     0.52702   0.84326   0.41552   0.12311  Uiso   1.00
C2310  C     0.52517   0.80829   0.34483   0.12311  Uiso   1.00
C2311  C     0.53398   0.82167   0.38029   0.12311  Uiso   1.00
C2312  C     0.54878   0.81396   0.38052   0.12311  Uiso   1.00
C2313  C     0.57082   0.84132   0.40369   0.12311  Uiso   1.00
C2314  C     0.55711   0.84279   0.40920   0.12311  Uiso   1.00
N2315  N     0.51391   0.84323   0.40182   0.12311  Uiso   1.00
N2316  N     0.51276   0.82162   0.35814   0.12311  Uiso   1.00
H2317  H     0.66638   0.80718   0.25541   0.12311  Uiso   0.00
C2318  C     0.65202   0.78174   0.29052   0.12311  Uiso   1.00
C2319  C     0.65017   0.81671   0.46983   0.12311  Uiso   1.00
C2320  C     0.65898   0.80333   0.25529   0.12311  Uiso   1.00
C2321  C     0.67378   0.81104   0.25552   0.12311  Uiso   1.00
C2322  C     0.69582   0.78368   0.27869   0.12311  Uiso   1.00
C2323  C     0.68211   0.78221   0.28420   0.12311  Uiso   1.00
N2324  N     0.63891   0.78177   0.27682   0.12311  Uiso   1.00
N2325  N     0.63776   0.80338   0.48314   0.12311  Uiso   1.00
H2326  H     0.54138   0.93218   0.25541   0.12311  Uiso   0.00
C2327  C     0.52702   0.90674   0.29052   0.12311  Uiso   1.00
C2328  C     0.52517   0.94171   0.46983   0.12311  Uiso   1.00
C2329  C     0.53398   0.92833   0.25529   0.12311  Uiso   1.00
C2330  C     0.54878   0.93604   0.25552   0.12311  Uiso   1.00
C2331  C     0.57082   0.90868   0.27869   0.12311  Uiso   1.00
C2332  C     0.55711   0.90721   0.28420   0.12311  Uiso   1.00
N2333  N     0.51391   0.90677   0.27682   0.12311  Uiso   1.00
N2334  N     0.51276   0.92838   0.48314   0.12311  Uiso   1.00
H2335  H     0.58362   0.80718   0.36959   0.12311  Uiso   0.00
C2336  C     0.59798   0.78174   0.33448   0.12311  Uiso   1.00
C2337  C     0.59983   0.81671   0.40517   0.12311  Uiso   1.00
C2338  C     0.59102   0.80333   0.36971   0.12311  Uiso   1.00
C2339  C     0.57622   0.81104   0.36948   0.12311  Uiso   1.00
C2340  C     0.55418   0.78368   0.34631   0.12311  Uiso   1.00
C2341  C     0.56789   0.78221   0.34080   0.12311  Uiso   1.00
N2342  N     0.61109   0.78177   0.34818   0.12311  Uiso   1.00
N2343  N     0.61224   0.80338   0.39186   0.12311  Uiso   1.00
H2344  H     0.70862   0.93218   0.36959   0.12311  Uiso   0.00
C2345  C     0.72298   0.90674   0.33448   0.12311  Uiso   1.00
C2346  C     0.72483   0.94171   0.40517   0.12311  Uiso   1.00
C2347  C     0.71602   0.92833   0.36971   0.12311  Uiso   1.00
C2348  C     0.70122   0.93604   0.36948   0.12311  Uiso   1.00
C2349  C     0.67918   0.90868   0.34631   0.12311  Uiso   1.00
C2350  C     0.69289   0.90721   0.34080   0.12311  Uiso   1.00
N2351  N     0.73609   0.90677   0.34818   0.12311  Uiso   1.00
N2352  N     0.73724   0.92838   0.39186   0.12311  Uiso   1.00
Fe2353 Fe    0.50000   0.86461   0.31250   0.12311  Uiso   1.00
Fe2354 Fe    0.62500   0.98961   0.31250   0.12311  Uiso   1.00
Fe2355 Fe    0.50000   0.88539   0.43750   0.12311  Uiso   1.00
Fe2356 Fe    0.62500   0.76039   0.43750   0.12311  Uiso   1.00
H2357  H     0.83362   0.94282   0.49459   0.12311  Uiso   0.00
C2358  C     0.84798   0.96826   0.45948   0.12311  Uiso   1.00
C2359  C     0.84983   0.93329   0.28017   0.12311  Uiso   1.00
C2360  C     0.84102   0.94667   0.49471   0.12311  Uiso   1.00
C2361  C     0.82622   0.93896   0.49448   0.12311  Uiso   1.00
C2362  C     0.80418   0.96632   0.47131   0.12311  Uiso   1.00
C2363  C     0.81789   0.96779   0.46580   0.12311  Uiso   1.00
N2364  N     0.86109   0.96823   0.47318   0.12311  Uiso   1.00
N2365  N     0.86224   0.94662   0.26686   0.12311  Uiso   1.00
H2366  H     0.95862   0.81782   0.49459   0.12311  Uiso   0.00
C2367  C     0.97298   0.84326   0.45948   0.12311  Uiso   1.00
C2368  C     0.97483   0.80829   0.28017   0.12311  Uiso   1.00
C2369  C     0.96602   0.82167   0.49471   0.12311  Uiso   1.00
C2370  C     0.95122   0.81396   0.49448   0.12311  Uiso   1.00
C2371  C     0.92918   0.84132   0.47131   0.12311  Uiso   1.00
C2372  C     0.94289   0.84279   0.46580   0.12311  Uiso   1.00
N2373  N     0.98609   0.84323   0.47318   0.12311  Uiso   1.00
N2374  N     0.98724   0.82162   0.26686   0.12311  Uiso   1.00
H2375  H     0.91638   0.94282   0.38041   0.12311  Uiso   0.00
C2376  C     0.90202   0.96826   0.41552   0.12311  Uiso   1.00
C2377  C     0.90017   0.93329   0.34483   0.12311  Uiso   1.00
C2378  C     0.90898   0.94667   0.38029   0.12311  Uiso   1.00
C2379  C     0.92378   0.93896   0.38052   0.12311  Uiso   1.00
C2380  C     0.94582   0.96632   0.40369   0.12311  Uiso   1.00
C2381  C     0.93211   0.96779   0.40920   0.12311  Uiso   1.00
N2382  N     0.88891   0.96823   0.40182   0.12311  Uiso   1.00
N2383  N     0.88776   0.94662   0.35814   0.12311  Uiso   1.00
H2384  H     0.79138   0.81782   0.38041   0.12311  Uiso   0.00
C2385  C     0.77702   0.84326   0.41552   0.12311  Uiso   1.00
C2386  C     0.77517   0.80829   0.34483   0.12311  Uiso   1.00
C2387  C     0.78398   0.82167   0.38029   0.12311  Uiso   1.00
C2388  C     0.79878   0.81396   0.38052   0.12311  Uiso   1.00
C2389  C     0.82082   0.84132   0.40369   0.12311  Uiso   1.00
C2390  C     0.80711   0.84279   0.40920   0.12311  Uiso   1.00
N2391  N     0.76391   0.84323   0.40182   0.12311  Uiso   1.00
N2392  N     0.76276   0.82162   0.35814   0.12311  Uiso   1.00
H2393  H     0.91638   0.80718   0.25541   0.12311  Uiso   0.00
C2394  C     0.90202   0.78174   0.29052   0.12311  Uiso   1.00
C2395  C     0.90017   0.81671   0.46983   0.12311  Uiso   1.00
C2396  C     0.90898   0.80333   0.25529   0.12311  Uiso   1.00
C2397  C     0.92378   0.81104   0.25552   0.12311  Uiso   1.00
C2398  C     0.94582   0.78368   0.27869   0.12311  Uiso   1.00
C2399  C     0.93211   0.78221   0.28420   0.12311  Uiso   1.00
N2400  N     0.88891   0.78177   0.27682   0.12311  Uiso   1.00
N2401  N     0.88776   0.80338   0.48314   0.12311  Uiso   1.00
H2402  H     0.79138   0.93218   0.25541   0.12311  Uiso   0.00
C2403  C     0.77702   0.90674   0.29052   0.12311  Uiso   1.00
C2404  C     0.77517   0.94171   0.46983   0.12311  Uiso   1.00
C2405  C     0.78398   0.92833   0.25529   0.12311  Uiso   1.00
C2406  C     0.79878   0.93604   0.25552   0.12311  Uiso   1.00
C2407  C     0.82082   0.90868   0.27869   0.12311  Uiso   1.00
C2408  C     0.80711   0.90721   0.28420   0.12311  Uiso   1.00
N2409  N     0.76391   0.90677   0.27682   0.12311  Uiso   1.00
N2410  N     0.76276   0.92838   0.48314   0.12311  Uiso   1.00
H2411  H     0.83362   0.80718   0.36959   0.12311  Uiso   0.00
C2412  C     0.84798   0.78174   0.33448   0.12311  Uiso   1.00
C2413  C     0.84983   0.81671   0.40517   0.12311  Uiso   1.00
C2414  C     0.84102   0.80333   0.36971   0.12311  Uiso   1.00
C2415  C     0.82622   0.81104   0.36948   0.12311  Uiso   1.00
C2416  C     0.80418   0.78368   0.34631   0.12311  Uiso   1.00
C2417  C     0.81789   0.78221   0.34080   0.12311  Uiso   1.00
N2418  N     0.86109   0.78177   0.34818   0.12311  Uiso   1.00
N2419  N     0.86224   0.80338   0.39186   0.12311  Uiso   1.00
H2420  H     0.95862   0.93218   0.36959   0.12311  Uiso   0.00
C2421  C     0.97298   0.90674   0.33448   0.12311  Uiso   1.00
C2422  C     0.97483   0.94171   0.40517   0.12311  Uiso   1.00
C2423  C     0.96602   0.92833   0.36971   0.12311  Uiso   1.00
C2424  C     0.95122   0.93604   0.36948   0.12311  Uiso   1.00
C2425  C     0.92918   0.90868   0.34631   0.12311  Uiso   1.00
C2426  C     0.94289   0.90721   0.34080   0.12311  Uiso   1.00
N2427  N     0.98609   0.90677   0.34818   0.12311  Uiso   1.00
N2428  N     0.98724   0.92838   0.39186   0.12311  Uiso   1.00
Fe2429 Fe    0.75000   0.86461   0.31250   0.12311  Uiso   1.00
Fe2430 Fe    0.87500   0.98961   0.31250   0.12311  Uiso   1.00
Fe2431 Fe    0.75000   0.88539   0.43750   0.12311  Uiso   1.00
Fe2432 Fe    0.87500   0.76039   0.43750   0.12311  Uiso   1.00
H2433  H     0.08362   0.19282   0.74459   0.12311  Uiso   0.00
C2434  C     0.09798   0.21826   0.70948   0.12311  Uiso   1.00
C2435  C     0.09983   0.18329   0.53017   0.12311  Uiso   1.00
C2436  C     0.09102   0.19667   0.74471   0.12311  Uiso   1.00
C2437  C     0.07622   0.18896   0.74448   0.12311  Uiso   1.00
C2438  C     0.05418   0.21632   0.72131   0.12311  Uiso   1.00
C2439  C     0.06789   0.21779   0.71580   0.12311  Uiso   1.00
N2440  N     0.11109   0.21823   0.72318   0.12311  Uiso   1.00
N2441  N     0.11224   0.19662   0.51686   0.12311  Uiso   1.00
H2442  H     0.20862   0.06782   0.74459   0.12311  Uiso   0.00
C2443  C     0.22298   0.09326   0.70948   0.12311  Uiso   1.00
C2444  C     0.22483   0.05829   0.53017   0.12311  Uiso   1.00
C2445  C     0.21602   0.07167   0.74471   0.12311  Uiso   1.00
C2446  C     0.20122   0.06396   0.74448   0.12311  Uiso   1.00
C2447  C     0.17918   0.09132   0.72131   0.12311  Uiso   1.00
C2448  C     0.19289   0.09279   0.71580   0.12311  Uiso   1.00
N2449  N     0.23609   0.09323   0.72318   0.12311  Uiso   1.00
N2450  N     0.23724   0.07162   0.51686   0.12311  Uiso   1.00
H2451  H     0.16638   0.19282   0.63041   0.12311  Uiso   0.00
C2452  C     0.15202   0.21826   0.66552   0.12311  Uiso   1.00
C2453  C     0.15017   0.18329   0.59483   0.12311  Uiso   1.00
C2454  C     0.15898   0.19667   0.63029   0.12311  Uiso   1.00
C2455  C     0.17378   0.18896   0.63052   0.12311  Uiso   1.00
C2456  C     0.19582   0.21632   0.65369   0.12311  Uiso   1.00
C2457  C     0.18211   0.21779   0.65920   0.12311  Uiso   1.00
N2458  N     0.13891   0.21823   0.65182   0.12311  Uiso   1.00
N2459  N     0.13776   0.19662   0.60814   0.12311  Uiso   1.00
H2460  H     0.04138   0.06782   0.63041   0.12311  Uiso   0.00
C2461  C     0.02702   0.09326   0.66552   0.12311  Uiso   1.00
C2462  C     0.02517   0.05829   0.59483   0.12311  Uiso   1.00
C2463  C     0.03398   0.07167   0.63029   0.12311  Uiso   1.00
C2464  C     0.04878   0.06396   0.63052   0.12311  Uiso   1.00
C2465  C     0.07082   0.09132   0.65369   0.12311  Uiso   1.00
C2466  C     0.05711   0.09279   0.65920   0.12311  Uiso   1.00
N2467  N     0.01391   0.09323   0.65182   0.12311  Uiso   1.00
N2468  N     0.01276   0.07162   0.60814   0.12311  Uiso   1.00
H2469  H     0.16638   0.05718   0.50541   0.12311  Uiso   0.00
C2470  C     0.15202   0.03174   0.54052   0.12311  Uiso   1.00
C2471  C     0.15017   0.06671   0.71983   0.12311  Uiso   1.00
C2472  C     0.15898   0.05333   0.50529   0.12311  Uiso   1.00
C2473  C     0.17378   0.06104   0.50552   0.12311  Uiso   1.00
C2474  C     0.19582   0.03368   0.52869   0.12311  Uiso   1.00
C2475  C     0.18211   0.03221   0.53420   0.12311  Uiso   1.00
N2476  N     0.13891   0.03177   0.52682   0.12311  Uiso   1.00
N2477  N     0.13776   0.05338   0.73314   0.12311  Uiso   1.00
H2478  H     0.04138   0.18218   0.50541   0.12311  Uiso   0.00
C2479  C     0.02702   0.15674   0.54052   0.12311  Uiso   1.00
C2480  C     0.02517   0.19171   0.71983   0.12311  Uiso   1.00
C2481  C     0.03398   0.17833   0.50529   0.12311  Uiso   1.00
C2482  C     0.04878   0.18604   0.50552   0.12311  Uiso   1.00
C2483  C     0.07082   0.15868   0.52869   0.12311  Uiso   1.00
C2484  C     0.05711   0.15721   0.53420   0.12311  Uiso   1.00
N2485  N     0.01391   0.15677   0.52682   0.12311  Uiso   1.00
N2486  N     0.01276   0.17838   0.73314   0.12311  Uiso   1.00
H2487  H     0.08362   0.05718   0.61959   0.12311  Uiso   0.00
C2488  C     0.09798   0.03174   0.58448   0.12311  Uiso   1.00
C2489  C     0.09983   0.06671   0.65517   0.12311  Uiso   1.00
C2490  C     0.09102   0.05333   0.61971   0.12311  Uiso   1.00
C2491  C     0.07622   0.06104   0.61948   0.12311  Uiso   1.00
C2492  C     0.05418   0.03368   0.59631   0.12311  Uiso   1.00
C2493  C     0.06789   0.03221   0.59080   0.12311  Uiso   1.00
N2494  N     0.11109   0.03177   0.59818   0.12311  Uiso   1.00
N2495  N     0.11224   0.05338   0.64186   0.12311  Uiso   1.00
H2496  H     0.20862   0.18218   0.61959   0.12311  Uiso   0.00
C2497  C     0.22298   0.15674   0.58448   0.12311  Uiso   1.00
C2498  C     0.22483   0.19171   0.65517   0.12311  Uiso   1.00
C2499  C     0.21602   0.17833   0.61971   0.12311  Uiso   1.00
C2500  C     0.20122   0.18604   0.61948   0.12311  Uiso   1.00
C2501  C     0.17918   0.15868   0.59631   0.12311  Uiso   1.00
C2502  C     0.19289   0.15721   0.59080   0.12311  Uiso   1.00
N2503  N     0.23609   0.15677   0.59818   0.12311  Uiso   1.00
N2504  N     0.23724   0.17838   0.64186   0.12311  Uiso   1.00
Fe2505 Fe    0.00000   0.11461   0.56250   0.12311  Uiso   1.00
Fe2506 Fe    0.12500   0.23961   0.56250   0.12311  Uiso   1.00
Fe2507 Fe    0.00000   0.13539   0.68750   0.12311  Uiso   1.00
Fe2508 Fe    0.12500   0.01039   0.68750   0.12311  Uiso   1.00
H2509  H     0.33362   0.19282   0.74459   0.12311  Uiso   0.00
C2510  C     0.34798   0.21826   0.70948   0.12311  Uiso   1.00
C2511  C     0.34983   0.18329   0.53017   0.12311  Uiso   1.00
C2512  C     0.34102   0.19667   0.74471   0.12311  Uiso   1.00
C2513  C     0.32622   0.18896   0.74448   0.12311  Uiso   1.00
C2514  C     0.30418   0.21632   0.72131   0.12311  Uiso   1.00
C2515  C     0.31789   0.21779   0.71580   0.12311  Uiso   1.00
N2516  N     0.36109   0.21823   0.72318   0.12311  Uiso   1.00
N2517  N     0.36224   0.19662   0.51686   0.12311  Uiso   1.00
H2518  H     0.45862   0.06782   0.74459   0.12311  Uiso   0.00
C2519  C     0.47298   0.09326   0.70948   0.12311  Uiso   1.00
C2520  C     0.47483   0.05829   0.53017   0.12311  Uiso   1.00
C2521  C     0.46602   0.07167   0.74471   0.12311  Uiso   1.00
C2522  C     0.45122   0.06396   0.74448   0.12311  Uiso   1.00
C2523  C     0.42918   0.09132   0.72131   0.12311  Uiso   1.00
C2524  C     0.44289   0.09279   0.71580   0.12311  Uiso   1.00
N2525  N     0.48609   0.09323   0.72318   0.12311  Uiso   1.00
N2526  N     0.48724   0.07162   0.51686   0.12311  Uiso   1.00
H2527  H     0.41638   0.19282   0.63041   0.12311  Uiso   0.00
C2528  C     0.40202   0.21826   0.66552   0.12311  Uiso   1.00
C2529  C     0.40017   0.18329   0.59483   0.12311  Uiso   1.00
C2530  C     0.40898   0.19667   0.63029   0.12311  Uiso   1.00
C2531  C     0.42378   0.18896   0.63052   0.12311  Uiso   1.00
C2532  C     0.44582   0.21632   0.65369   0.12311  Uiso   1.00
C2533  C     0.43211   0.21779   0.65920   0.12311  Uiso   1.00
N2534  N     0.38891   0.21823   0.65182   0.12311  Uiso   1.00
N2535  N     0.38776   0.19662   0.60814   0.12311  Uiso   1.00
H2536  H     0.29138   0.06782   0.63041   0.12311  Uiso   0.00
C2537  C     0.27702   0.09326   0.66552   0.12311  Uiso   1.00
C2538  C     0.27517   0.05829   0.59483   0.12311  Uiso   1.00
C2539  C     0.28398   0.07167   0.63029   0.12311  Uiso   1.00
C2540  C     0.29878   0.06396   0.63052   0.12311  Uiso   1.00
C2541  C     0.32082   0.09132   0.65369   0.12311  Uiso   1.00
C2542  C     0.30711   0.09279   0.65920   0.12311  Uiso   1.00
N2543  N     0.26391   0.09323   0.65182   0.12311  Uiso   1.00
N2544  N     0.26276   0.07162   0.60814   0.12311  Uiso   1.00
H2545  H     0.41638   0.05718   0.50541   0.12311  Uiso   0.00
C2546  C     0.40202   0.03174   0.54052   0.12311  Uiso   1.00
C2547  C     0.40017   0.06671   0.71983   0.12311  Uiso   1.00
C2548  C     0.40898   0.05333   0.50529   0.12311  Uiso   1.00
C2549  C     0.42378   0.06104   0.50552   0.12311  Uiso   1.00
C2550  C     0.44582   0.03368   0.52869   0.12311  Uiso   1.00
C2551  C     0.43211   0.03221   0.53420   0.12311  Uiso   1.00
N2552  N     0.38891   0.03177   0.52682   0.12311  Uiso   1.00
N2553  N     0.38776   0.05338   0.73314   0.12311  Uiso   1.00
H2554  H     0.29138   0.18218   0.50541   0.12311  Uiso   0.00
C2555  C     0.27702   0.15674   0.54052   0.12311  Uiso   1.00
C2556  C     0.27517   0.19171   0.71983   0.12311  Uiso   1.00
C2557  C     0.28398   0.17833   0.50529   0.12311  Uiso   1.00
C2558  C     0.29878   0.18604   0.50552   0.12311  Uiso   1.00
C2559  C     0.32082   0.15868   0.52869   0.12311  Uiso   1.00
C2560  C     0.30711   0.15721   0.53420   0.12311  Uiso   1.00
N2561  N     0.26391   0.15677   0.52682   0.12311  Uiso   1.00
N2562  N     0.26276   0.17838   0.73314   0.12311  Uiso   1.00
H2563  H     0.33362   0.05718   0.61959   0.12311  Uiso   0.00
C2564  C     0.34798   0.03174   0.58448   0.12311  Uiso   1.00
C2565  C     0.34983   0.06671   0.65517   0.12311  Uiso   1.00
C2566  C     0.34102   0.05333   0.61971   0.12311  Uiso   1.00
C2567  C     0.32622   0.06104   0.61948   0.12311  Uiso   1.00
C2568  C     0.30418   0.03368   0.59631   0.12311  Uiso   1.00
C2569  C     0.31789   0.03221   0.59080   0.12311  Uiso   1.00
N2570  N     0.36109   0.03177   0.59818   0.12311  Uiso   1.00
N2571  N     0.36224   0.05338   0.64186   0.12311  Uiso   1.00
H2572  H     0.45862   0.18218   0.61959   0.12311  Uiso   0.00
C2573  C     0.47298   0.15674   0.58448   0.12311  Uiso   1.00
C2574  C     0.47483   0.19171   0.65517   0.12311  Uiso   1.00
C2575  C     0.46602   0.17833   0.61971   0.12311  Uiso   1.00
C2576  C     0.45122   0.18604   0.61948   0.12311  Uiso   1.00
C2577  C     0.42918   0.15868   0.59631   0.12311  Uiso   1.00
C2578  C     0.44289   0.15721   0.59080   0.12311  Uiso   1.00
N2579  N     0.48609   0.15677   0.59818   0.12311  Uiso   1.00
N2580  N     0.48724   0.17838   0.64186   0.12311  Uiso   1.00
Fe2581 Fe    0.25000   0.11461   0.56250   0.12311  Uiso   1.00
Fe2582 Fe    0.37500   0.23961   0.56250   0.12311  Uiso   1.00
Fe2583 Fe    0.25000   0.13539   0.68750   0.12311  Uiso   1.00
Fe2584 Fe    0.37500   0.01039   0.68750   0.12311  Uiso   1.00
H2585  H     0.58362   0.19282   0.74459   0.12311  Uiso   0.00
C2586  C     0.59798   0.21826   0.70948   0.12311  Uiso   1.00
C2587  C     0.59983   0.18329   0.53017   0.12311  Uiso   1.00
C2588  C     0.59102   0.19667   0.74471   0.12311  Uiso   1.00
C2589  C     0.57622   0.18896   0.74448   0.12311  Uiso   1.00
C2590  C     0.55418   0.21632   0.72131   0.12311  Uiso   1.00
C2591  C     0.56789   0.21779   0.71580   0.12311  Uiso   1.00
N2592  N     0.61109   0.21823   0.72318   0.12311  Uiso   1.00
N2593  N     0.61224   0.19662   0.51686   0.12311  Uiso   1.00
H2594  H     0.70862   0.06782   0.74459   0.12311  Uiso   0.00
C2595  C     0.72298   0.09326   0.70948   0.12311  Uiso   1.00
C2596  C     0.72483   0.05829   0.53017   0.12311  Uiso   1.00
C2597  C     0.71602   0.07167   0.74471   0.12311  Uiso   1.00
C2598  C     0.70122   0.06396   0.74448   0.12311  Uiso   1.00
C2599  C     0.67918   0.09132   0.72131   0.12311  Uiso   1.00
C2600  C     0.69289   0.09279   0.71580   0.12311  Uiso   1.00
N2601  N     0.73609   0.09323   0.72318   0.12311  Uiso   1.00
N2602  N     0.73724   0.07162   0.51686   0.12311  Uiso   1.00
H2603  H     0.66638   0.19282   0.63041   0.12311  Uiso   0.00
C2604  C     0.65202   0.21826   0.66552   0.12311  Uiso   1.00
C2605  C     0.65017   0.18329   0.59483   0.12311  Uiso   1.00
C2606  C     0.65898   0.19667   0.63029   0.12311  Uiso   1.00
C2607  C     0.67378   0.18896   0.63052   0.12311  Uiso   1.00
C2608  C     0.69582   0.21632   0.65369   0.12311  Uiso   1.00
C2609  C     0.68211   0.21779   0.65920   0.12311  Uiso   1.00
N2610  N     0.63891   0.21823   0.65182   0.12311  Uiso   1.00
N2611  N     0.63776   0.19662   0.60814   0.12311  Uiso   1.00
H2612  H     0.54138   0.06782   0.63041   0.12311  Uiso   0.00
C2613  C     0.52702   0.09326   0.66552   0.12311  Uiso   1.00
C2614  C     0.52517   0.05829   0.59483   0.12311  Uiso   1.00
C2615  C     0.53398   0.07167   0.63029   0.12311  Uiso   1.00
C2616  C     0.54878   0.06396   0.63052   0.12311  Uiso   1.00
C2617  C     0.57082   0.09132   0.65369   0.12311  Uiso   1.00
C2618  C     0.55711   0.09279   0.65920   0.12311  Uiso   1.00
N2619  N     0.51391   0.09323   0.65182   0.12311  Uiso   1.00
N2620  N     0.51276   0.07162   0.60814   0.12311  Uiso   1.00
H2621  H     0.66638   0.05718   0.50541   0.12311  Uiso   0.00
C2622  C     0.65202   0.03174   0.54052   0.12311  Uiso   1.00
C2623  C     0.65017   0.06671   0.71983   0.12311  Uiso   1.00
C2624  C     0.65898   0.05333   0.50529   0.12311  Uiso   1.00
C2625  C     0.67378   0.06104   0.50552   0.12311  Uiso   1.00
C2626  C     0.69582   0.03368   0.52869   0.12311  Uiso   1.00
C2627  C     0.68211   0.03221   0.53420   0.12311  Uiso   1.00
N2628  N     0.63891   0.03177   0.52682   0.12311  Uiso   1.00
N2629  N     0.63776   0.05338   0.73314   0.12311  Uiso   1.00
H2630  H     0.54138   0.18218   0.50541   0.12311  Uiso   0.00
C2631  C     0.52702   0.15674   0.54052   0.12311  Uiso   1.00
C2632  C     0.52517   0.19171   0.71983   0.12311  Uiso   1.00
C2633  C     0.53398   0.17833   0.50529   0.12311  Uiso   1.00
C2634  C     0.54878   0.18604   0.50552   0.12311  Uiso   1.00
C2635  C     0.57082   0.15868   0.52869   0.12311  Uiso   1.00
C2636  C     0.55711   0.15721   0.53420   0.12311  Uiso   1.00
N2637  N     0.51391   0.15677   0.52682   0.12311  Uiso   1.00
N2638  N     0.51276   0.17838   0.73314   0.12311  Uiso   1.00
H2639  H     0.58362   0.05718   0.61959   0.12311  Uiso   0.00
C2640  C     0.59798   0.03174   0.58448   0.12311  Uiso   1.00
C2641  C     0.59983   0.06671   0.65517   0.12311  Uiso   1.00
C2642  C     0.59102   0.05333   0.61971   0.12311  Uiso   1.00
C2643  C     0.57622   0.06104   0.61948   0.12311  Uiso   1.00
C2644  C     0.55418   0.03368   0.59631   0.12311  Uiso   1.00
C2645  C     0.56789   0.03221   0.59080   0.12311  Uiso   1.00
N2646  N     0.61109   0.03177   0.59818   0.12311  Uiso   1.00
N2647  N     0.61224   0.05338   0.64186   0.12311  Uiso   1.00
H2648  H     0.70862   0.18218   0.61959   0.12311  Uiso   0.00
C2649  C     0.72298   0.15674   0.58448   0.12311  Uiso   1.00
C2650  C     0.72483   0.19171   0.65517   0.12311  Uiso   1.00
C2651  C     0.71602   0.17833   0.61971   0.12311  Uiso   1.00
C2652  C     0.70122   0.18604   0.61948   0.12311  Uiso   1.00
C2653  C     0.67918   0.15868   0.59631   0.12311  Uiso   1.00
C2654  C     0.69289   0.15721   0.59080   0.12311  Uiso   1.00
N2655  N     0.73609   0.15677   0.59818   0.12311  Uiso   1.00
N2656  N     0.73724   0.17838   0.64186   0.12311  Uiso   1.00
Fe2657 Fe    0.50000   0.11461   0.56250   0.12311  Uiso   1.00
Fe2658 Fe    0.62500   0.23961   0.56250   0.12311  Uiso   1.00
Fe2659 Fe    0.50000   0.13539   0.68750   0.12311  Uiso   1.00
Fe2660 Fe    0.62500   0.01039   0.68750   0.12311  Uiso   1.00
H2661  H     0.83362   0.19282   0.74459   0.12311  Uiso   0.00
C2662  C     0.84798   0.21826   0.70948   0.12311  Uiso   1.00
C2663  C     0.84983   0.18329   0.53017   0.12311  Uiso   1.00
C2664  C     0.84102   0.19667   0.74471   0.12311  Uiso   1.00
C2665  C     0.82622   0.18896   0.74448   0.12311  Uiso   1.00
C2666  C     0.80418   0.21632   0.72131   0.12311  Uiso   1.00
C2667  C     0.81789   0.21779   0.71580   0.12311  Uiso   1.00
N2668  N     0.86109   0.21823   0.72318   0.12311  Uiso   1.00
N2669  N     0.86224   0.19662   0.51686   0.12311  Uiso   1.00
H2670  H     0.95862   0.06782   0.74459   0.12311  Uiso   0.00
C2671  C     0.97298   0.09326   0.70948   0.12311  Uiso   1.00
C2672  C     0.97483   0.05829   0.53017   0.12311  Uiso   1.00
C2673  C     0.96602   0.07167   0.74471   0.12311  Uiso   1.00
C2674  C     0.95122   0.06396   0.74448   0.12311  Uiso   1.00
C2675  C     0.92918   0.09132   0.72131   0.12311  Uiso   1.00
C2676  C     0.94289   0.09279   0.71580   0.12311  Uiso   1.00
N2677  N     0.98609   0.09323   0.72318   0.12311  Uiso   1.00
N2678  N     0.98724   0.07162   0.51686   0.12311  Uiso   1.00
H2679  H     0.91638   0.19282   0.63041   0.12311  Uiso   0.00
C2680  C     0.90202   0.21826   0.66552   0.12311  Uiso   1.00
C2681  C     0.90017   0.18329   0.59483   0.12311  Uiso   1.00
C2682  C     0.90898   0.19667   0.63029   0.12311  Uiso   1.00
C2683  C     0.92378   0.18896   0.63052   0.12311  Uiso   1.00
C2684  C     0.94582   0.21632   0.65369   0.12311  Uiso   1.00
C2685  C     0.93211   0.21779   0.65920   0.12311  Uiso   1.00
N2686  N     0.88891   0.21823   0.65182   0.12311  Uiso   1.00
N2687  N     0.88776   0.19662   0.60814   0.12311  Uiso   1.00
H2688  H     0.79138   0.06782   0.63041   0.12311  Uiso   0.00
C2689  C     0.77702   0.09326   0.66552   0.12311  Uiso   1.00
C2690  C     0.77517   0.05829   0.59483   0.12311  Uiso   1.00
C2691  C     0.78398   0.07167   0.63029   0.12311  Uiso   1.00
C2692  C     0.79878   0.06396   0.63052   0.12311  Uiso   1.00
C2693  C     0.82082   0.09132   0.65369   0.12311  Uiso   1.00
C2694  C     0.80711   0.09279   0.65920   0.12311  Uiso   1.00
N2695  N     0.76391   0.09323   0.65182   0.12311  Uiso   1.00
N2696  N     0.76276   0.07162   0.60814   0.12311  Uiso   1.00
H2697  H     0.91638   0.05718   0.50541   0.12311  Uiso   0.00
C2698  C     0.90202   0.03174   0.54052   0.12311  Uiso   1.00
C2699  C     0.90017   0.06671   0.71983   0.12311  Uiso   1.00
C2700  C     0.90898   0.05333   0.50529   0.12311  Uiso   1.00
C2701  C     0.92378   0.06104   0.50552   0.12311  Uiso   1.00
C2702  C     0.94582   0.03368   0.52869   0.12311  Uiso   1.00
C2703  C     0.93211   0.03221   0.53420   0.12311  Uiso   1.00
N2704  N     0.88891   0.03177   0.52682   0.12311  Uiso   1.00
N2705  N     0.88776   0.05338   0.73314   0.12311  Uiso   1.00
H2706  H     0.79138   0.18218   0.50541   0.12311  Uiso   0.00
C2707  C     0.77702   0.15674   0.54052   0.12311  Uiso   1.00
C2708  C     0.77517   0.19171   0.71983   0.12311  Uiso   1.00
C2709  C     0.78398   0.17833   0.50529   0.12311  Uiso   1.00
C2710  C     0.79878   0.18604   0.50552   0.12311  Uiso   1.00
C2711  C     0.82082   0.15868   0.52869   0.12311  Uiso   1.00
C2712  C     0.80711   0.15721   0.53420   0.12311  Uiso   1.00
N2713  N     0.76391   0.15677   0.52682   0.12311  Uiso   1.00
N2714  N     0.76276   0.17838   0.73314   0.12311  Uiso   1.00
H2715  H     0.83362   0.05718   0.61959   0.12311  Uiso   0.00
C2716  C     0.84798   0.03174   0.58448   0.12311  Uiso   1.00
C2717  C     0.84983   0.06671   0.65517   0.12311  Uiso   1.00
C2718  C     0.84102   0.05333   0.61971   0.12311  Uiso   1.00
C2719  C     0.82622   0.06104   0.61948   0.12311  Uiso   1.00
C2720  C     0.80418   0.03368   0.59631   0.12311  Uiso   1.00
C2721  C     0.81789   0.03221   0.59080   0.12311  Uiso   1.00
N2722  N     0.86109   0.03177   0.59818   0.12311  Uiso   1.00
N2723  N     0.86224   0.05338   0.64186   0.12311  Uiso   1.00
H2724  H     0.95862   0.18218   0.61959   0.12311  Uiso   0.00
C2725  C     0.97298   0.15674   0.58448   0.12311  Uiso   1.00
C2726  C     0.97483   0.19171   0.65517   0.12311  Uiso   1.00
C2727  C     0.96602   0.17833   0.61971   0.12311  Uiso   1.00
C2728  C     0.95122   0.18604   0.61948   0.12311  Uiso   1.00
C2729  C     0.92918   0.15868   0.59631   0.12311  Uiso   1.00
C2730  C     0.94289   0.15721   0.59080   0.12311  Uiso   1.00
N2731  N     0.98609   0.15677   0.59818   0.12311  Uiso   1.00
N2732  N     0.98724   0.17838   0.64186   0.12311  Uiso   1.00
Fe2733 Fe    0.75000   0.11461   0.56250   0.12311  Uiso   1.00
Fe2734 Fe    0.87500   0.23961   0.56250   0.12311  Uiso   1.00
Fe2735 Fe    0.75000   0.13539   0.68750   0.12311  Uiso   1.00
Fe2736 Fe    0.87500   0.01039   0.68750   0.12311  Uiso   1.00
H2737  H     0.08362   0.44282   0.74459   0.12311  Uiso   0.00
C2738  C     0.09798   0.46826   0.70948   0.12311  Uiso   1.00
C2739  C     0.09983   0.43329   0.53017   0.12311  Uiso   1.00
C2740  C     0.09102   0.44667   0.74471   0.12311  Uiso   1.00
C2741  C     0.07622   0.43896   0.74448   0.12311  Uiso   1.00
C2742  C     0.05418   0.46632   0.72131   0.12311  Uiso   1.00
C2743  C     0.06789   0.46779   0.71580   0.12311  Uiso   1.00
N2744  N     0.11109   0.46823   0.72318   0.12311  Uiso   1.00
N2745  N     0.11224   0.44662   0.51686   0.12311  Uiso   1.00
H2746  H     0.20862   0.31782   0.74459   0.12311  Uiso   0.00
C2747  C     0.22298   0.34326   0.70948   0.12311  Uiso   1.00
C2748  C     0.22483   0.30829   0.53017   0.12311  Uiso   1.00
C2749  C     0.21602   0.32167   0.74471   0.12311  Uiso   1.00
C2750  C     0.20122   0.31396   0.74448   0.12311  Uiso   1.00
C2751  C     0.17918   0.34132   0.72131   0.12311  Uiso   1.00
C2752  C     0.19289   0.34279   0.71580   0.12311  Uiso   1.00
N2753  N     0.23609   0.34323   0.72318   0.12311  Uiso   1.00
N2754  N     0.23724   0.32162   0.51686   0.12311  Uiso   1.00
H2755  H     0.16638   0.44282   0.63041   0.12311  Uiso   0.00
C2756  C     0.15202   0.46826   0.66552   0.12311  Uiso   1.00
C2757  C     0.15017   0.43329   0.59483   0.12311  Uiso   1.00
C2758  C     0.15898   0.44667   0.63029   0.12311  Uiso   1.00
C2759  C     0.17378   0.43896   0.63052   0.12311  Uiso   1.00
C2760  C     0.19582   0.46632   0.65369   0.12311  Uiso   1.00
C2761  C     0.18211   0.46779   0.65920   0.12311  Uiso   1.00
N2762  N     0.13891   0.46823   0.65182   0.12311  Uiso   1.00
N2763  N     0.13776   0.44662   0.60814   0.12311  Uiso   1.00
H2764  H     0.04138   0.31782   0.63041   0.12311  Uiso   0.00
C2765  C     0.02702   0.34326   0.66552   0.12311  Uiso   1.00
C2766  C     0.02517   0.30829   0.59483   0.12311  Uiso   1.00
C2767  C     0.03398   0.32167   0.63029   0.12311  Uiso   1.00
C2768  C     0.04878   0.31396   0.63052   0.12311  Uiso   1.00
C2769  C     0.07082   0.34132   0.65369   0.12311  Uiso   1.00
C2770  C     0.05711   0.34279   0.65920   0.12311  Uiso   1.00
N2771  N     0.01391   0.34323   0.65182   0.12311  Uiso   1.00
N2772  N     0.01276   0.32162   0.60814   0.12311  Uiso   1.00
H2773  H     0.16638   0.30718   0.50541   0.12311  Uiso   0.00
C2774  C     0.15202   0.28174   0.54052   0.12311  Uiso   1.00
C2775  C     0.15017   0.31671   0.71983   0.12311  Uiso   1.00
C2776  C     0.15898   0.30333   0.50529   0.12311  Uiso   1.00
C2777  C     0.17378   0.31104   0.50552   0.12311  Uiso   1.00
C2778  C     0.19582   0.28368   0.52869   0.12311  Uiso   1.00
C2779  C     0.18211   0.28221   0.53420   0.12311  Uiso   1.00
N2780  N     0.13891   0.28177   0.52682   0.12311  Uiso   1.00
N2781  N     0.13776   0.30338   0.73314   0.12311  Uiso   1.00
H2782  H     0.04138   0.43218   0.50541   0.12311  Uiso   0.00
C2783  C     0.02702   0.40674   0.54052   0.12311  Uiso   1.00
C2784  C     0.02517   0.44171   0.71983   0.12311  Uiso   1.00
C2785  C     0.03398   0.42833   0.50529   0.12311  Uiso   1.00
C2786  C     0.04878   0.43604   0.50552   0.12311  Uiso   1.00
C2787  C     0.07082   0.40868   0.52869   0.12311  Uiso   1.00
C2788  C     0.05711   0.40721   0.53420   0.12311  Uiso   1.00
N2789  N     0.01391   0.40677   0.52682   0.12311  Uiso   1.00
N2790  N     0.01276   0.42838   0.73314   0.12311  Uiso   1.00
H2791  H     0.08362   0.30718   0.61959   0.12311  Uiso   0.00
C2792  C     0.09798   0.28174   0.58448   0.12311  Uiso   1.00
C2793  C     0.09983   0.31671   0.65517   0.12311  Uiso   1.00
C2794  C     0.09102   0.30333   0.61971   0.12311  Uiso   1.00
C2795  C     0.07622   0.31104   0.61948   0.12311  Uiso   1.00
C2796  C     0.05418   0.28368   0.59631   0.12311  Uiso   1.00
C2797  C     0.06789   0.28221   0.59080   0.12311  Uiso   1.00
N2798  N     0.11109   0.28177   0.59818   0.12311  Uiso   1.00
N2799  N     0.11224   0.30338   0.64186   0.12311  Uiso   1.00
H2800  H     0.20862   0.43218   0.61959   0.12311  Uiso   0.00
C2801  C     0.22298   0.40674   0.58448   0.12311  Uiso   1.00
C2802  C     0.22483   0.44171   0.65517   0.12311  Uiso   1.00
C2803  C     0.21602   0.42833   0.61971   0.12311  Uiso   1.00
C2804  C     0.20122   0.43604   0.61948   0.12311  Uiso   1.00
C2805  C     0.17918   0.40868   0.59631   0.12311  Uiso   1.00
C2806  C     0.19289   0.40721   0.59080   0.12311  Uiso   1.00
N2807  N     0.23609   0.40677   0.59818   0.12311  Uiso   1.00
N2808  N     0.23724   0.42838   0.64186   0.12311  Uiso   1.00
Fe2809 Fe    0.00000   0.36461   0.56250   0.12311  Uiso   1.00
Fe2810 Fe    0.12500   0.48961   0.56250   0.12311  Uiso   1.00
Fe2811 Fe    0.00000   0.38539   0.68750   0.12311  Uiso   1.00
Fe2812 Fe    0.12500   0.26039   0.68750   0.12311  Uiso   1.00
H2813  H     0.33362   0.44282   0.74459   0.12311  Uiso   0.00
C2814  C     0.34798   0.46826   0.70948   0.12311  Uiso   1.00
C2815  C     0.34983   0.43329   0.53017   0.12311  Uiso   1.00
C2816  C     0.34102   0.44667   0.74471   0.12311  Uiso   1.00
C2817  C     0.32622   0.43896   0.74448   0.12311  Uiso   1.00
C2818  C     0.30418   0.46632   0.72131   0.12311  Uiso   1.00
C2819  C     0.31789   0.46779   0.71580   0.12311  Uiso   1.00
N2820  N     0.36109   0.46823   0.72318   0.12311  Uiso   1.00
N2821  N     0.36224   0.44662   0.51686   0.12311  Uiso   1.00
H2822  H     0.45862   0.31782   0.74459   0.12311  Uiso   0.00
C2823  C     0.47298   0.34326   0.70948   0.12311  Uiso   1.00
C2824  C     0.47483   0.30829   0.53017   0.12311  Uiso   1.00
C2825  C     0.46602   0.32167   0.74471   0.12311  Uiso   1.00
C2826  C     0.45122   0.31396   0.74448   0.12311  Uiso   1.00
C2827  C     0.42918   0.34132   0.72131   0.12311  Uiso   1.00
C2828  C     0.44289   0.34279   0.71580   0.12311  Uiso   1.00
N2829  N     0.48609   0.34323   0.72318   0.12311  Uiso   1.00
N2830  N     0.48724   0.32162   0.51686   0.12311  Uiso   1.00
H2831  H     0.41638   0.44282   0.63041   0.12311  Uiso   0.00
C2832  C     0.40202   0.46826   0.66552   0.12311  Uiso   1.00
C2833  C     0.40017   0.43329   0.59483   0.12311  Uiso   1.00
C2834  C     0.40898   0.44667   0.63029   0.12311  Uiso   1.00
C2835  C     0.42378   0.43896   0.63052   0.12311  Uiso   1.00
C2836  C     0.44582   0.46632   0.65369   0.12311  Uiso   1.00
C2837  C     0.43211   0.46779   0.65920   0.12311  Uiso   1.00
N2838  N     0.38891   0.46823   0.65182   0.12311  Uiso   1.00
N2839  N     0.38776   0.44662   0.60814   0.12311  Uiso   1.00
H2840  H     0.29138   0.31782   0.63041   0.12311  Uiso   0.00
C2841  C     0.27702   0.34326   0.66552   0.12311  Uiso   1.00
C2842  C     0.27517   0.30829   0.59483   0.12311  Uiso   1.00
C2843  C     0.28398   0.32167   0.63029   0.12311  Uiso   1.00
C2844  C     0.29878   0.31396   0.63052   0.12311  Uiso   1.00
C2845  C     0.32082   0.34132   0.65369   0.12311  Uiso   1.00
C2846  C     0.30711   0.34279   0.65920   0.12311  Uiso   1.00
N2847  N     0.26391   0.34323   0.65182   0.12311  Uiso   1.00
N2848  N     0.26276   0.32162   0.60814   0.12311  Uiso   1.00
H2849  H     0.41638   0.30718   0.50541   0.12311  Uiso   0.00
C2850  C     0.40202   0.28174   0.54052   0.12311  Uiso   1.00
C2851  C     0.40017   0.31671   0.71983   0.12311  Uiso   1.00
C2852  C     0.40898   0.30333   0.50529   0.12311  Uiso   1.00
C2853  C     0.42378   0.31104   0.50552   0.12311  Uiso   1.00
C2854  C     0.44582   0.28368   0.52869   0.12311  Uiso   1.00
C2855  C     0.43211   0.28221   0.53420   0.12311  Uiso   1.00
N2856  N     0.38891   0.28177   0.52682   0.12311  Uiso   1.00
N2857  N     0.38776   0.30338   0.73314   0.12311  Uiso   1.00
H2858  H     0.29138   0.43218   0.50541   0.12311  Uiso   0.00
C2859  C     0.27702   0.40674   0.54052   0.12311  Uiso   1.00
C2860  C     0.27517   0.44171   0.71983   0.12311  Uiso   1.00
C2861  C     0.28398   0.42833   0.50529   0.12311  Uiso   1.00
C2862  C     0.29878   0.43604   0.50552   0.12311  Uiso   1.00
C2863  C     0.32082   0.40868   0.52869   0.12311  Uiso   1.00
C2864  C     0.30711   0.40721   0.53420   0.12311  Uiso   1.00
N2865  N     0.26391   0.40677   0.52682   0.12311  Uiso   1.00
N2866  N     0.26276   0.42838   0.73314   0.12311  Uiso   1.00
H2867  H     0.33362   0.30718   0.61959   0.12311  Uiso   0.00
C2868  C     0.34798   0.28174   0.58448   0.12311  Uiso   1.00
C2869  C     0.34983   0.31671   0.65517   0.12311  Uiso   1.00
C2870  C     0.34102   0.30333   0.61971   0.12311  Uiso   1.00
C2871  C     0.32622   0.31104   0.61948   0.12311  Uiso   1.00
C2872  C     0.30418   0.28368   0.59631   0.12311  Uiso   1.00
C2873  C     0.31789   0.28221   0.59080   0.12311  Uiso   1.00
N2874  N     0.36109   0.28177   0.59818   0.12311  Uiso   1.00
N2875  N     0.36224   0.30338   0.64186   0.12311  Uiso   1.00
H2876  H     0.45862   0.43218   0.61959   0.12311  Uiso   0.00
C2877  C     0.47298   0.40674   0.58448   0.12311  Uiso   1.00
C2878  C     0.47483   0.44171   0.65517   0.12311  Uiso   1.00
C2879  C     0.46602   0.42833   0.61971   0.12311  Uiso   1.00
C2880  C     0.45122   0.43604   0.61948   0.12311  Uiso   1.00
C2881  C     0.42918   0.40868   0.59631   0.12311  Uiso   1.00
C2882  C     0.44289   0.40721   0.59080   0.12311  Uiso   1.00
N2883  N     0.48609   0.40677   0.59818   0.12311  Uiso   1.00
N2884  N     0.48724   0.42838   0.64186   0.12311  Uiso   1.00
Fe2885 Fe    0.25000   0.36461   0.56250   0.12311  Uiso   1.00
Fe2886 Fe    0.37500   0.48961   0.56250   0.12311  Uiso   1.00
Fe2887 Fe    0.25000   0.38539   0.68750   0.12311  Uiso   1.00
Fe2888 Fe    0.37500   0.26039   0.68750   0.12311  Uiso   1.00
H2889  H     0.58362   0.44282   0.74459   0.12311  Uiso   0.00
C2890  C     0.59798   0.46826   0.70948   0.12311  Uiso   1.00
C2891  C     0.59983   0.43329   0.53017   0.12311  Uiso   1.00
C2892  C     0.59102   0.44667   0.74471   0.12311  Uiso   1.00
C2893  C     0.57622   0.43896   0.74448   0.12311  Uiso   1.00
C2894  C     0.55418   0.46632   0.72131   0.12311  Uiso   1.00
C2895  C     0.56789   0.46779   0.71580   0.12311  Uiso   1.00
N2896  N     0.61109   0.46823   0.72318   0.12311  Uiso   1.00
N2897  N     0.61224   0.44662   0.51686   0.12311  Uiso   1.00
H2898  H     0.70862   0.31782   0.74459   0.12311  Uiso   0.00
C2899  C     0.72298   0.34326   0.70948   0.12311  Uiso   1.00
C2900  C     0.72483   0.30829   0.53017   0.12311  Uiso   1.00
C2901  C     0.71602   0.32167   0.74471   0.12311  Uiso   1.00
C2902  C     0.70122   0.31396   0.74448   0.12311  Uiso   1.00
C2903  C     0.67918   0.34132   0.72131   0.12311  Uiso   1.00
C2904  C     0.69289   0.34279   0.71580   0.12311  Uiso   1.00
N2905  N     0.73609   0.34323   0.72318   0.12311  Uiso   1.00
N2906  N     0.73724   0.32162   0.51686   0.12311  Uiso   1.00
H2907  H     0.66638   0.44282   0.63041   0.12311  Uiso   0.00
C2908  C     0.65202   0.46826   0.66552   0.12311  Uiso   1.00
C2909  C     0.65017   0.43329   0.59483   0.12311  Uiso   1.00
C2910  C     0.65898   0.44667   0.63029   0.12311  Uiso   1.00
C2911  C     0.67378   0.43896   0.63052   0.12311  Uiso   1.00
C2912  C     0.69582   0.46632   0.65369   0.12311  Uiso   1.00
C2913  C     0.68211   0.46779   0.65920   0.12311  Uiso   1.00
N2914  N     0.63891   0.46823   0.65182   0.12311  Uiso   1.00
N2915  N     0.63776   0.44662   0.60814   0.12311  Uiso   1.00
H2916  H     0.54138   0.31782   0.63041   0.12311  Uiso   0.00
C2917  C     0.52702   0.34326   0.66552   0.12311  Uiso   1.00
C2918  C     0.52517   0.30829   0.59483   0.12311  Uiso   1.00
C2919  C     0.53398   0.32167   0.63029   0.12311  Uiso   1.00
C2920  C     0.54878   0.31396   0.63052   0.12311  Uiso   1.00
C2921  C     0.57082   0.34132   0.65369   0.12311  Uiso   1.00
C2922  C     0.55711   0.34279   0.65920   0.12311  Uiso   1.00
N2923  N     0.51391   0.34323   0.65182   0.12311  Uiso   1.00
N2924  N     0.51276   0.32162   0.60814   0.12311  Uiso   1.00
H2925  H     0.66638   0.30718   0.50541   0.12311  Uiso   0.00
C2926  C     0.65202   0.28174   0.54052   0.12311  Uiso   1.00
C2927  C     0.65017   0.31671   0.71983   0.12311  Uiso   1.00
C2928  C     0.65898   0.30333   0.50529   0.12311  Uiso   1.00
C2929  C     0.67378   0.31104   0.50552   0.12311  Uiso   1.00
C2930  C     0.69582   0.28368   0.52869   0.12311  Uiso   1.00
C2931  C     0.68211   0.28221   0.53420   0.12311  Uiso   1.00
N2932  N     0.63891   0.28177   0.52682   0.12311  Uiso   1.00
N2933  N     0.63776   0.30338   0.73314   0.12311  Uiso   1.00
H2934  H     0.54138   0.43218   0.50541   0.12311  Uiso   0.00
C2935  C     0.52702   0.40674   0.54052   0.12311  Uiso   1.00
C2936  C     0.52517   0.44171   0.71983   0.12311  Uiso   1.00
C2937  C     0.53398   0.42833   0.50529   0.12311  Uiso   1.00
C2938  C     0.54878   0.43604   0.50552   0.12311  Uiso   1.00
C2939  C     0.57082   0.40868   0.52869   0.12311  Uiso   1.00
C2940  C     0.55711   0.40721   0.53420   0.12311  Uiso   1.00
N2941  N     0.51391   0.40677   0.52682   0.12311  Uiso   1.00
N2942  N     0.51276   0.42838   0.73314   0.12311  Uiso   1.00
H2943  H     0.58362   0.30718   0.61959   0.12311  Uiso   0.00
C2944  C     0.59798   0.28174   0.58448   0.12311  Uiso   1.00
C2945  C     0.59983   0.31671   0.65517   0.12311  Uiso   1.00
C2946  C     0.59102   0.30333   0.61971   0.12311  Uiso   1.00
C2947  C     0.57622   0.31104   0.61948   0.12311  Uiso   1.00
C2948  C     0.55418   0.28368   0.59631   0.12311  Uiso   1.00
C2949  C     0.56789   0.28221   0.59080   0.12311  Uiso   1.00
N2950  N     0.61109   0.28177   0.59818   0.12311  Uiso   1.00
N2951  N     0.61224   0.30338   0.64186   0.12311  Uiso   1.00
H2952  H     0.70862   0.43218   0.61959   0.12311  Uiso   0.00
C2953  C     0.72298   0.40674   0.58448   0.12311  Uiso   1.00
C2954  C     0.72483   0.44171   0.65517   0.12311  Uiso   1.00
C2955  C     0.71602   0.42833   0.61971   0.12311  Uiso   1.00
C2956  C     0.70122   0.43604   0.61948   0.12311  Uiso   1.00
C2957  C     0.67918   0.40868   0.59631   0.12311  Uiso   1.00
C2958  C     0.69289   0.40721   0.59080   0.12311  Uiso   1.00
N2959  N     0.73609   0.40677   0.59818   0.12311  Uiso   1.00
N2960  N     0.73724   0.42838   0.64186   0.12311  Uiso   1.00
Fe2961 Fe    0.50000   0.36461   0.56250   0.12311  Uiso   1.00
Fe2962 Fe    0.62500   0.48961   0.56250   0.12311  Uiso   1.00
Fe2963 Fe    0.50000   0.38539   0.68750   0.12311  Uiso   1.00
Fe2964 Fe    0.62500   0.26039   0.68750   0.12311  Uiso   1.00
H2965  H     0.83362   0.44282   0.74459   0.12311  Uiso   0.00
C2966  C     0.84798   0.46826   0.70948   0.12311  Uiso   1.00
C2967  C     0.84983   0.43329   0.53017   0.12311  Uiso   1.00
C2968  C     0.84102   0.44667   0.74471   0.12311  Uiso   1.00
C2969  C     0.82622   0.43896   0.74448   0.12311  Uiso   1.00
C2970  C     0.80418   0.46632   0.72131   0.12311  Uiso   1.00
C2971  C     0.81789   0.46779   0.71580   0.12311  Uiso   1.00
N2972  N     0.86109   0.46823   0.72318   0.12311  Uiso   1.00
N2973  N     0.86224   0.44662   0.51686   0.12311  Uiso   1.00
H2974  H     0.95862   0.31782   0.74459   0.12311  Uiso   0.00
C2975  C     0.97298   0.34326   0.70948   0.12311  Uiso   1.00
C2976  C     0.97483   0.30829   0.53017   0.12311  Uiso   1.00
C2977  C     0.96602   0.32167   0.74471   0.12311  Uiso   1.00
C2978  C     0.95122   0.31396   0.74448   0.12311  Uiso   1.00
C2979  C     0.92918   0.34132   0.72131   0.12311  Uiso   1.00
C2980  C     0.94289   0.34279   0.71580   0.12311  Uiso   1.00
N2981  N     0.98609   0.34323   0.72318   0.12311  Uiso   1.00
N2982  N     0.98724   0.32162   0.51686   0.12311  Uiso   1.00
H2983  H     0.91638   0.44282   0.63041   0.12311  Uiso   0.00
C2984  C     0.90202   0.46826   0.66552   0.12311  Uiso   1.00
C2985  C     0.90017   0.43329   0.59483   0.12311  Uiso   1.00
C2986  C     0.90898   0.44667   0.63029   0.12311  Uiso   1.00
C2987  C     0.92378   0.43896   0.63052   0.12311  Uiso   1.00
C2988  C     0.94582   0.46632   0.65369   0.12311  Uiso   1.00
C2989  C     0.93211   0.46779   0.65920   0.12311  Uiso   1.00
N2990  N     0.88891   0.46823   0.65182   0.12311  Uiso   1.00
N2991  N     0.88776   0.44662   0.60814   0.12311  Uiso   1.00
H2992  H     0.79138   0.31782   0.63041   0.12311  Uiso   0.00
C2993  C     0.77702   0.34326   0.66552   0.12311  Uiso   1.00
C2994  C     0.77517   0.30829   0.59483   0.12311  Uiso   1.00
C2995  C     0.78398   0.32167   0.63029   0.12311  Uiso   1.00
C2996  C     0.79878   0.31396   0.63052   0.12311  Uiso   1.00
C2997  C     0.82082   0.34132   0.65369   0.12311  Uiso   1.00
C2998  C     0.80711   0.34279   0.65920   0.12311  Uiso   1.00
N2999  N     0.76391   0.34323   0.65182   0.12311  Uiso   1.00
N3000  N     0.76276   0.32162   0.60814   0.12311  Uiso   1.00
H3001  H     0.91638   0.30718   0.50541   0.12311  Uiso   0.00
C3002  C     0.90202   0.28174   0.54052   0.12311  Uiso   1.00
C3003  C     0.90017   0.31671   0.71983   0.12311  Uiso   1.00
C3004  C     0.90898   0.30333   0.50529   0.12311  Uiso   1.00
C3005  C     0.92378   0.31104   0.50552   0.12311  Uiso   1.00
C3006  C     0.94582   0.28368   0.52869   0.12311  Uiso   1.00
C3007  C     0.93211   0.28221   0.53420   0.12311  Uiso   1.00
N3008  N     0.88891   0.28177   0.52682   0.12311  Uiso   1.00
N3009  N     0.88776   0.30338   0.73314   0.12311  Uiso   1.00
H3010  H     0.79138   0.43218   0.50541   0.12311  Uiso   0.00
C3011  C     0.77702   0.40674   0.54052   0.12311  Uiso   1.00
C3012  C     0.77517   0.44171   0.71983   0.12311  Uiso   1.00
C3013  C     0.78398   0.42833   0.50529   0.12311  Uiso   1.00
C3014  C     0.79878   0.43604   0.50552   0.12311  Uiso   1.00
C3015  C     0.82082   0.40868   0.52869   0.12311  Uiso   1.00
C3016  C     0.80711   0.40721   0.53420   0.12311  Uiso   1.00
N3017  N     0.76391   0.40677   0.52682   0.12311  Uiso   1.00
N3018  N     0.76276   0.42838   0.73314   0.12311  Uiso   1.00
H3019  H     0.83362   0.30718   0.61959   0.12311  Uiso   0.00
C3020  C     0.84798   0.28174   0.58448   0.12311  Uiso   1.00
C3021  C     0.84983   0.31671   0.65517   0.12311  Uiso   1.00
C3022  C     0.84102   0.30333   0.61971   0.12311  Uiso   1.00
C3023  C     0.82622   0.31104   0.61948   0.12311  Uiso   1.00
C3024  C     0.80418   0.28368   0.59631   0.12311  Uiso   1.00
C3025  C     0.81789   0.28221   0.59080   0.12311  Uiso   1.00
N3026  N     0.86109   0.28177   0.59818   0.12311  Uiso   1.00
N3027  N     0.86224   0.30338   0.64186   0.12311  Uiso   1.00
H3028  H     0.95862   0.43218   0.61959   0.12311  Uiso   0.00
C3029  C     0.97298   0.40674   0.58448   0.12311  Uiso   1.00
C3030  C     0.97483   0.44171   0.65517   0.12311  Uiso   1.00
C3031  C     0.96602   0.42833   0.61971   0.12311  Uiso   1.00
C3032  C     0.95122   0.43604   0.61948   0.12311  Uiso   1.00
C3033  C     0.92918   0.40868   0.59631   0.12311  Uiso   1.00
C3034  C     0.94289   0.40721   0.59080   0.12311  Uiso   1.00
N3035  N     0.98609   0.40677   0.59818   0.12311  Uiso   1.00
N3036  N     0.98724   0.42838   0.64186   0.12311  Uiso   1.00
Fe3037 Fe    0.75000   0.36461   0.56250   0.12311  Uiso   1.00
Fe3038 Fe    0.87500   0.48961   0.56250   0.12311  Uiso   1.00
Fe3039 Fe    0.75000   0.38539   0.68750   0.12311  Uiso   1.00
Fe3040 Fe    0.87500   0.26039   0.68750   0.12311  Uiso   1.00
H3041  H     0.08362   0.69282   0.74459   0.12311  Uiso   0.00
C3042  C     0.09798   0.71826   0.70948   0.12311  Uiso   1.00
C3043  C     0.09983   0.68329   0.53017   0.12311  Uiso   1.00
C3044  C     0.09102   0.69667   0.74471   0.12311  Uiso   1.00
C3045  C     0.07622   0.68896   0.74448   0.12311  Uiso   1.00
C3046  C     0.05418   0.71632   0.72131   0.12311  Uiso   1.00
C3047  C     0.06789   0.71779   0.71580   0.12311  Uiso   1.00
N3048  N     0.11109   0.71823   0.72318   0.12311  Uiso   1.00
N3049  N     0.11224   0.69662   0.51686   0.12311  Uiso   1.00
H3050  H     0.20862   0.56782   0.74459   0.12311  Uiso   0.00
C3051  C     0.22298   0.59326   0.70948   0.12311  Uiso   1.00
C3052  C     0.22483   0.55829   0.53017   0.12311  Uiso   1.00
C3053  C     0.21602   0.57167   0.74471   0.12311  Uiso   1.00
C3054  C     0.20122   0.56396   0.74448   0.12311  Uiso   1.00
C3055  C     0.17918   0.59132   0.72131   0.12311  Uiso   1.00
C3056  C     0.19289   0.59279   0.71580   0.12311  Uiso   1.00
N3057  N     0.23609   0.59323   0.72318   0.12311  Uiso   1.00
N3058  N     0.23724   0.57162   0.51686   0.12311  Uiso   1.00
H3059  H     0.16638   0.69282   0.63041   0.12311  Uiso   0.00
C3060  C     0.15202   0.71826   0.66552   0.12311  Uiso   1.00
C3061  C     0.15017   0.68329   0.59483   0.12311  Uiso   1.00
C3062  C     0.15898   0.69667   0.63029   0.12311  Uiso   1.00
C3063  C     0.17378   0.68896   0.63052   0.12311  Uiso   1.00
C3064  C     0.19582   0.71632   0.65369   0.12311  Uiso   1.00
C3065  C     0.18211   0.71779   0.65920   0.12311  Uiso   1.00
N3066  N     0.13891   0.71823   0.65182   0.12311  Uiso   1.00
N3067  N     0.13776   0.69662   0.60814   0.12311  Uiso   1.00
H3068  H     0.04138   0.56782   0.63041   0.12311  Uiso   0.00
C3069  C     0.02702   0.59326   0.66552   0.12311  Uiso   1.00
C3070  C     0.02517   0.55829   0.59483   0.12311  Uiso   1.00
C3071  C     0.03398   0.57167   0.63029   0.12311  Uiso   1.00
C3072  C     0.04878   0.56396   0.63052   0.12311  Uiso   1.00
C3073  C     0.07082   0.59132   0.65369   0.12311  Uiso   1.00
C3074  C     0.05711   0.59279   0.65920   0.12311  Uiso   1.00
N3075  N     0.01391   0.59323   0.65182   0.12311  Uiso   1.00
N3076  N     0.01276   0.57162   0.60814   0.12311  Uiso   1.00
H3077  H     0.16638   0.55718   0.50541   0.12311  Uiso   0.00
C3078  C     0.15202   0.53174   0.54052   0.12311  Uiso   1.00
C3079  C     0.15017   0.56671   0.71983   0.12311  Uiso   1.00
C3080  C     0.15898   0.55333   0.50529   0.12311  Uiso   1.00
C3081  C     0.17378   0.56104   0.50552   0.12311  Uiso   1.00
C3082  C     0.19582   0.53368   0.52869   0.12311  Uiso   1.00
C3083  C     0.18211   0.53221   0.53420   0.12311  Uiso   1.00
N3084  N     0.13891   0.53177   0.52682   0.12311  Uiso   1.00
N3085  N     0.13776   0.55338   0.73314   0.12311  Uiso   1.00
H3086  H     0.04138   0.68218   0.50541   0.12311  Uiso   0.00
C3087  C     0.02702   0.65674   0.54052   0.12311  Uiso   1.00
C3088  C     0.02517   0.69171   0.71983   0.12311  Uiso   1.00
C3089  C     0.03398   0.67833   0.50529   0.12311  Uiso   1.00
C3090  C     0.04878   0.68604   0.50552   0.12311  Uiso   1.00
C3091  C     0.07082   0.65868   0.52869   0.12311  Uiso   1.00
C3092  C     0.05711   0.65721   0.53420   0.12311  Uiso   1.00
N3093  N     0.01391   0.65677   0.52682   0.12311  Uiso   1.00
N3094  N     0.01276   0.67838   0.73314   0.12311  Uiso   1.00
H3095  H     0.08362   0.55718   0.61959   0.12311  Uiso   0.00
C3096  C     0.09798   0.53174   0.58448   0.12311  Uiso   1.00
C3097  C     0.09983   0.56671   0.65517   0.12311  Uiso   1.00
C3098  C     0.09102   0.55333   0.61971   0.12311  Uiso   1.00
C3099  C     0.07622   0.56104   0.61948   0.12311  Uiso   1.00
C3100  C     0.05418   0.53368   0.59631   0.12311  Uiso   1.00
C3101  C     0.06789   0.53221   0.59080   0.12311  Uiso   1.00
N3102  N     0.11109   0.53177   0.59818   0.12311  Uiso   1.00
N3103  N     0.11224   0.55338   0.64186   0.12311  Uiso   1.00
H3104  H     0.20862   0.68218   0.61959   0.12311  Uiso   0.00
C3105  C     0.22298   0.65674   0.58448   0.12311  Uiso   1.00
C3106  C     0.22483   0.69171   0.65517   0.12311  Uiso   1.00
C3107  C     0.21602   0.67833   0.61971   0.12311  Uiso   1.00
C3108  C     0.20122   0.68604   0.61948   0.12311  Uiso   1.00
C3109  C     0.17918   0.65868   0.59631   0.12311  Uiso   1.00
C3110  C     0.19289   0.65721   0.59080   0.12311  Uiso   1.00
N3111  N     0.23609   0.65677   0.59818   0.12311  Uiso   1.00
N3112  N     0.23724   0.67838   0.64186   0.12311  Uiso   1.00
Fe3113 Fe    0.00000   0.61461   0.56250   0.12311  Uiso   1.00
Fe3114 Fe    0.12500   0.73961   0.56250   0.12311  Uiso   1.00
Fe3115 Fe    0.00000   0.63539   0.68750   0.12311  Uiso   1.00
Fe3116 Fe    0.12500   0.51039   0.68750   0.12311  Uiso   1.00
H3117  H     0.33362   0.69282   0.74459   0.12311  Uiso   0.00
C3118  C     0.34798   0.71826   0.70948   0.12311  Uiso   1.00
C3119  C     0.34983   0.68329   0.53017   0.12311  Uiso   1.00
C3120  C     0.34102   0.69667   0.74471   0.12311  Uiso   1.00
C3121  C     0.32622   0.68896   0.74448   0.12311  Uiso   1.00
C3122  C     0.30418   0.71632   0.72131   0.12311  Uiso   1.00
C3123  C     0.31789   0.71779   0.71580   0.12311  Uiso   1.00
N3124  N     0.36109   0.71823   0.72318   0.12311  Uiso   1.00
N3125  N     0.36224   0.69662   0.51686   0.12311  Uiso   1.00
H3126  H     0.45862   0.56782   0.74459   0.12311  Uiso   0.00
C3127  C     0.47298   0.59326   0.70948   0.12311  Uiso   1.00
C3128  C     0.47483   0.55829   0.53017   0.12311  Uiso   1.00
C3129  C     0.46602   0.57167   0.74471   0.12311  Uiso   1.00
C3130  C     0.45122   0.56396   0.74448   0.12311  Uiso   1.00
C3131  C     0.42918   0.59132   0.72131   0.12311  Uiso   1.00
C3132  C     0.44289   0.59279   0.71580   0.12311  Uiso   1.00
N3133  N     0.48609   0.59323   0.72318   0.12311  Uiso   1.00
N3134  N     0.48724   0.57162   0.51686   0.12311  Uiso   1.00
H3135  H     0.41638   0.69282   0.63041   0.12311  Uiso   0.00
C3136  C     0.40202   0.71826   0.66552   0.12311  Uiso   1.00
C3137  C     0.40017   0.68329   0.59483   0.12311  Uiso   1.00
C3138  C     0.40898   0.69667   0.63029   0.12311  Uiso   1.00
C3139  C     0.42378   0.68896   0.63052   0.12311  Uiso   1.00
C3140  C     0.44582   0.71632   0.65369   0.12311  Uiso   1.00
C3141  C     0.43211   0.71779   0.65920   0.12311  Uiso   1.00
N3142  N     0.38891   0.71823   0.65182   0.12311  Uiso   1.00
N3143  N     0.38776   0.69662   0.60814   0.12311  Uiso   1.00
H3144  H     0.29138   0.56782   0.63041   0.12311  Uiso   0.00
C3145  C     0.27702   0.59326   0.66552   0.12311  Uiso   1.00
C3146  C     0.27517   0.55829   0.59483   0.12311  Uiso   1.00
C3147  C     0.28398   0.57167   0.63029   0.12311  Uiso   1.00
C3148  C     0.29878   0.56396   0.63052   0.12311  Uiso   1.00
C3149  C     0.32082   0.59132   0.65369   0.12311  Uiso   1.00
C3150  C     0.30711   0.59279   0.65920   0.12311  Uiso   1.00
N3151  N     0.26391   0.59323   0.65182   0.12311  Uiso   1.00
N3152  N     0.26276   0.57162   0.60814   0.12311  Uiso   1.00
H3153  H     0.41638   0.55718   0.50541   0.12311  Uiso   0.00
C3154  C     0.40202   0.53174   0.54052   0.12311  Uiso   1.00
C3155  C     0.40017   0.56671   0.71983   0.12311  Uiso   1.00
C3156  C     0.40898   0.55333   0.50529   0.12311  Uiso   1.00
C3157  C     0.42378   0.56104   0.50552   0.12311  Uiso   1.00
C3158  C     0.44582   0.53368   0.52869   0.12311  Uiso   1.00
C3159  C     0.43211   0.53221   0.53420   0.12311  Uiso   1.00
N3160  N     0.38891   0.53177   0.52682   0.12311  Uiso   1.00
N3161  N     0.38776   0.55338   0.73314   0.12311  Uiso   1.00
H3162  H     0.29138   0.68218   0.50541   0.12311  Uiso   0.00
C3163  C     0.27702   0.65674   0.54052   0.12311  Uiso   1.00
C3164  C     0.27517   0.69171   0.71983   0.12311  Uiso   1.00
C3165  C     0.28398   0.67833   0.50529   0.12311  Uiso   1.00
C3166  C     0.29878   0.68604   0.50552   0.12311  Uiso   1.00
C3167  C     0.32082   0.65868   0.52869   0.12311  Uiso   1.00
C3168  C     0.30711   0.65721   0.53420   0.12311  Uiso   1.00
N3169  N     0.26391   0.65677   0.52682   0.12311  Uiso   1.00
N3170  N     0.26276   0.67838   0.73314   0.12311  Uiso   1.00
H3171  H     0.33362   0.55718   0.61959   0.12311  Uiso   0.00
C3172  C     0.34798   0.53174   0.58448   0.12311  Uiso   1.00
C3173  C     0.34983   0.56671   0.65517   0.12311  Uiso   1.00
C3174  C     0.34102   0.55333   0.61971   0.12311  Uiso   1.00
C3175  C     0.32622   0.56104   0.61948   0.12311  Uiso   1.00
C3176  C     0.30418   0.53368   0.59631   0.12311  Uiso   1.00
C3177  C     0.31789   0.53221   0.59080   0.12311  Uiso   1.00
N3178  N     0.36109   0.53177   0.59818   0.12311  Uiso   1.00
N3179  N     0.36224   0.55338   0.64186   0.12311  Uiso   1.00
H3180  H     0.45862   0.68218   0.61959   0.12311  Uiso   0.00
C3181  C     0.47298   0.65674   0.58448   0.12311  Uiso   1.00
C3182  C     0.47483   0.69171   0.65517   0.12311  Uiso   1.00
C3183  C     0.46602   0.67833   0.61971   0.12311  Uiso   1.00
C3184  C     0.45122   0.68604   0.61948   0.12311  Uiso   1.00
C3185  C     0.42918   0.65868   0.59631   0.12311  Uiso   1.00
C3186  C     0.44289   0.65721   0.59080   0.12311  Uiso   1.00
N3187  N     0.48609   0.65677   0.59818   0.12311  Uiso   1.00
N3188  N     0.48724   0.67838   0.64186   0.12311  Uiso   1.00
Fe3189 Fe    0.25000   0.61461   0.56250   0.12311  Uiso   1.00
Fe3190 Fe    0.37500   0.73961   0.56250   0.12311  Uiso   1.00
Fe3191 Fe    0.25000   0.63539   0.68750   0.12311  Uiso   1.00
Fe3192 Fe    0.37500   0.51039   0.68750   0.12311  Uiso   1.00
H3193  H     0.58362   0.69282   0.74459   0.12311  Uiso   0.00
C3194  C     0.59798   0.71826   0.70948   0.12311  Uiso   1.00
C3195  C     0.59983   0.68329   0.53017   0.12311  Uiso   1.00
C3196  C     0.59102   0.69667   0.74471   0.12311  Uiso   1.00
C3197  C     0.57622   0.68896   0.74448   0.12311  Uiso   1.00
C3198  C     0.55418   0.71632   0.72131   0.12311  Uiso   1.00
C3199  C     0.56789   0.71779   0.71580   0.12311  Uiso   1.00
N3200  N     0.61109   0.71823   0.72318   0.12311  Uiso   1.00
N3201  N     0.61224   0.69662   0.51686   0.12311  Uiso   1.00
H3202  H     0.70862   0.56782   0.74459   0.12311  Uiso   0.00
C3203  C     0.72298   0.59326   0.70948   0.12311  Uiso   1.00
C3204  C     0.72483   0.55829   0.53017   0.12311  Uiso   1.00
C3205  C     0.71602   0.57167   0.74471   0.12311  Uiso   1.00
C3206  C     0.70122   0.56396   0.74448   0.12311  Uiso   1.00
C3207  C     0.67918   0.59132   0.72131   0.12311  Uiso   1.00
C3208  C     0.69289   0.59279   0.71580   0.12311  Uiso   1.00
N3209  N     0.73609   0.59323   0.72318   0.12311  Uiso   1.00
N3210  N     0.73724   0.57162   0.51686   0.12311  Uiso   1.00
H3211  H     0.66638   0.69282   0.63041   0.12311  Uiso   0.00
C3212  C     0.65202   0.71826   0.66552   0.12311  Uiso   1.00
C3213  C     0.65017   0.68329   0.59483   0.12311  Uiso   1.00
C3214  C     0.65898   0.69667   0.63029   0.12311  Uiso   1.00
C3215  C     0.67378   0.68896   0.63052   0.12311  Uiso   1.00
C3216  C     0.69582   0.71632   0.65369   0.12311  Uiso   1.00
C3217  C     0.68211   0.71779   0.65920   0.12311  Uiso   1.00
N3218  N     0.63891   0.71823   0.65182   0.12311  Uiso   1.00
N3219  N     0.63776   0.69662   0.60814   0.12311  Uiso   1.00
H3220  H     0.54138   0.56782   0.63041   0.12311  Uiso   0.00
C3221  C     0.52702   0.59326   0.66552   0.12311  Uiso   1.00
C3222  C     0.52517   0.55829   0.59483   0.12311  Uiso   1.00
C3223  C     0.53398   0.57167   0.63029   0.12311  Uiso   1.00
C3224  C     0.54878   0.56396   0.63052   0.12311  Uiso   1.00
C3225  C     0.57082   0.59132   0.65369   0.12311  Uiso   1.00
C3226  C     0.55711   0.59279   0.65920   0.12311  Uiso   1.00
N3227  N     0.51391   0.59323   0.65182   0.12311  Uiso   1.00
N3228  N     0.51276   0.57162   0.60814   0.12311  Uiso   1.00
H3229  H     0.66638   0.55718   0.50541   0.12311  Uiso   0.00
C3230  C     0.65202   0.53174   0.54052   0.12311  Uiso   1.00
C3231  C     0.65017   0.56671   0.71983   0.12311  Uiso   1.00
C3232  C     0.65898   0.55333   0.50529   0.12311  Uiso   1.00
C3233  C     0.67378   0.56104   0.50552   0.12311  Uiso   1.00
C3234  C     0.69582   0.53368   0.52869   0.12311  Uiso   1.00
C3235  C     0.68211   0.53221   0.53420   0.12311  Uiso   1.00
N3236  N     0.63891   0.53177   0.52682   0.12311  Uiso   1.00
N3237  N     0.63776   0.55338   0.73314   0.12311  Uiso   1.00
H3238  H     0.54138   0.68218   0.50541   0.12311  Uiso   0.00
C3239  C     0.52702   0.65674   0.54052   0.12311  Uiso   1.00
C3240  C     0.52517   0.69171   0.71983   0.12311  Uiso   1.00
C3241  C     0.53398   0.67833   0.50529   0.12311  Uiso   1.00
C3242  C     0.54878   0.68604   0.50552   0.12311  Uiso   1.00
C3243  C     0.57082   0.65868   0.52869   0.12311  Uiso   1.00
C3244  C     0.55711   0.65721   0.53420   0.12311  Uiso   1.00
N3245  N     0.51391   0.65677   0.52682   0.12311  Uiso   1.00
N3246  N     0.51276   0.67838   0.73314   0.12311  Uiso   1.00
H3247  H     0.58362   0.55718   0.61959   0.12311  Uiso   0.00
C3248  C     0.59798   0.53174   0.58448   0.12311  Uiso   1.00
C3249  C     0.59983   0.56671   0.65517   0.12311  Uiso   1.00
C3250  C     0.59102   0.55333   0.61971   0.12311  Uiso   1.00
C3251  C     0.57622   0.56104   0.61948   0.12311  Uiso   1.00
C3252  C     0.55418   0.53368   0.59631   0.12311  Uiso   1.00
C3253  C     0.56789   0.53221   0.59080   0.12311  Uiso   1.00
N3254  N     0.61109   0.53177   0.59818   0.12311  Uiso   1.00
N3255  N     0.61224   0.55338   0.64186   0.12311  Uiso   1.00
H3256  H     0.70862   0.68218   0.61959   0.12311  Uiso   0.00
C3257  C     0.72298   0.65674   0.58448   0.12311  Uiso   1.00
C3258  C     0.72483   0.69171   0.65517   0.12311  Uiso   1.00
C3259  C     0.71602   0.67833   0.61971   0.12311  Uiso   1.00
C3260  C     0.70122   0.68604   0.61948   0.12311  Uiso   1.00
C3261  C     0.67918   0.65868   0.59631   0.12311  Uiso   1.00
C3262  C     0.69289   0.65721   0.59080   0.12311  Uiso   1.00
N3263  N     0.73609   0.65677   0.59818   0.12311  Uiso   1.00
N3264  N     0.73724   0.67838   0.64186   0.12311  Uiso   1.00
Fe3265 Fe    0.50000   0.61461   0.56250   0.12311  Uiso   1.00
Fe3266 Fe    0.62500   0.73961   0.56250   0.12311  Uiso   1.00
Fe3267 Fe    0.50000   0.63539   0.68750   0.12311  Uiso   1.00
Fe3268 Fe    0.62500   0.51039   0.68750   0.12311  Uiso   1.00
H3269  H     0.83362   0.69282   0.74459   0.12311  Uiso   0.00
C3270  C     0.84798   0.71826   0.70948   0.12311  Uiso   1.00
C3271  C     0.84983   0.68329   0.53017   0.12311  Uiso   1.00
C3272  C     0.84102   0.69667   0.74471   0.12311  Uiso   1.00
C3273  C     0.82622   0.68896   0.74448   0.12311  Uiso   1.00
C3274  C     0.80418   0.71632   0.72131   0.12311  Uiso   1.00
C3275  C     0.81789   0.71779   0.71580   0.12311  Uiso   1.00
N3276  N     0.86109   0.71823   0.72318   0.12311  Uiso   1.00
N3277  N     0.86224   0.69662   0.51686   0.12311  Uiso   1.00
H3278  H     0.95862   0.56782   0.74459   0.12311  Uiso   0.00
C3279  C     0.97298   0.59326   0.70948   0.12311  Uiso   1.00
C3280  C     0.97483   0.55829   0.53017   0.12311  Uiso   1.00
C3281  C     0.96602   0.57167   0.74471   0.12311  Uiso   1.00
C3282  C     0.95122   0.56396   0.74448   0.12311  Uiso   1.00
C3283  C     0.92918   0.59132   0.72131   0.12311  Uiso   1.00
C3284  C     0.94289   0.59279   0.71580   0.12311  Uiso   1.00
N3285  N     0.98609   0.59323   0.72318   0.12311  Uiso   1.00
N3286  N     0.98724   0.57162   0.51686   0.12311  Uiso   1.00
H3287  H     0.91638   0.69282   0.63041   0.12311  Uiso   0.00
C3288  C     0.90202   0.71826   0.66552   0.12311  Uiso   1.00
C3289  C     0.90017   0.68329   0.59483   0.12311  Uiso   1.00
C3290  C     0.90898   0.69667   0.63029   0.12311  Uiso   1.00
C3291  C     0.92378   0.68896   0.63052   0.12311  Uiso   1.00
C3292  C     0.94582   0.71632   0.65369   0.12311  Uiso   1.00
C3293  C     0.93211   0.71779   0.65920   0.12311  Uiso   1.00
N3294  N     0.88891   0.71823   0.65182   0.12311  Uiso   1.00
N3295  N     0.88776   0.69662   0.60814   0.12311  Uiso   1.00
H3296  H     0.79138   0.56782   0.63041   0.12311  Uiso   0.00
C3297  C     0.77702   0.59326   0.66552   0.12311  Uiso   1.00
C3298  C     0.77517   0.55829   0.59483   0.12311  Uiso   1.00
C3299  C     0.78398   0.57167   0.63029   0.12311  Uiso   1.00
C3300  C     0.79878   0.56396   0.63052   0.12311  Uiso   1.00
C3301  C     0.82082   0.59132   0.65369   0.12311  Uiso   1.00
C3302  C     0.80711   0.59279   0.65920   0.12311  Uiso   1.00
N3303  N     0.76391   0.59323   0.65182   0.12311  Uiso   1.00
N3304  N     0.76276   0.57162   0.60814   0.12311  Uiso   1.00
H3305  H     0.91638   0.55718   0.50541   0.12311  Uiso   0.00
C3306  C     0.90202   0.53174   0.54052   0.12311  Uiso   1.00
C3307  C     0.90017   0.56671   0.71983   0.12311  Uiso   1.00
C3308  C     0.90898   0.55333   0.50529   0.12311  Uiso   1.00
C3309  C     0.92378   0.56104   0.50552   0.12311  Uiso   1.00
C3310  C     0.94582   0.53368   0.52869   0.12311  Uiso   1.00
C3311  C     0.93211   0.53221   0.53420   0.12311  Uiso   1.00
N3312  N     0.88891   0.53177   0.52682   0.12311  Uiso   1.00
N3313  N     0.88776   0.55338   0.73314   0.12311  Uiso   1.00
H3314  H     0.79138   0.68218   0.50541   0.12311  Uiso   0.00
C3315  C     0.77702   0.65674   0.54052   0.12311  Uiso   1.00
C3316  C     0.77517   0.69171   0.71983   0.12311  Uiso   1.00
C3317  C     0.78398   0.67833   0.50529   0.12311  Uiso   1.00
C3318  C     0.79878   0.68604   0.50552   0.12311  Uiso   1.00
C3319  C     0.82082   0.65868   0.52869   0.12311  Uiso   1.00
C3320  C     0.80711   0.65721   0.53420   0.12311  Uiso   1.00
N3321  N     0.76391   0.65677   0.52682   0.12311  Uiso   1.00
N3322  N     0.76276   0.67838   0.73314   0.12311  Uiso   1.00
H3323  H     0.83362   0.55718   0.61959   0.12311  Uiso   0.00
C3324  C     0.84798   0.53174   0.58448   0.12311  Uiso   1.00
C3325  C     0.84983   0.56671   0.65517   0.12311  Uiso   1.00
C3326  C     0.84102   0.55333   0.61971   0.12311  Uiso   1.00
C3327  C     0.82622   0.56104   0.61948   0.12311  Uiso   1.00
C3328  C     0.80418   0.53368   0.59631   0.12311  Uiso   1.00
C3329  C     0.81789   0.53221   0.59080   0.12311  Uiso   1.00
N3330  N     0.86109   0.53177   0.59818   0.12311  Uiso   1.00
N3331  N     0.86224   0.55338   0.64186   0.12311  Uiso   1.00
H3332  H     0.95862   0.68218   0.61959   0.12311  Uiso   0.00
C3333  C     0.97298   0.65674   0.58448   0.12311  Uiso   1.00
C3334  C     0.97483   0.69171   0.65517   0.12311  Uiso   1.00
C3335  C     0.96602   0.67833   0.61971   0.12311  Uiso   1.00
C3336  C     0.95122   0.68604   0.61948   0.12311  Uiso   1.00
C3337  C     0.92918   0.65868   0.59631   0.12311  Uiso   1.00
C3338  C     0.94289   0.65721   0.59080   0.12311  Uiso   1.00
N3339  N     0.98609   0.65677   0.59818   0.12311  Uiso   1.00
N3340  N     0.98724   0.67838   0.64186   0.12311  Uiso   1.00
Fe3341 Fe    0.75000   0.61461   0.56250   0.12311  Uiso   1.00
Fe3342 Fe    0.87500   0.73961   0.56250   0.12311  Uiso   1.00
Fe3343 Fe    0.75000   0.63539   0.68750   0.12311  Uiso   1.00
Fe3344 Fe    0.87500   0.51039   0.68750   0.12311  Uiso   1.00
H3345  H     0.08362   0.94282   0.74459   0.12311  Uiso   0.00
C3346  C     0.09798   0.96826   0.70948   0.12311  Uiso   1.00
C3347  C     0.09983   0.93329   0.53017   0.12311  Uiso   1.00
C3348  C     0.09102   0.94667   0.74471   0.12311  Uiso   1.00
C3349  C     0.07622   0.93896   0.74448   0.12311  Uiso   1.00
C3350  C     0.05418   0.96632   0.72131   0.12311  Uiso   1.00
C3351  C     0.06789   0.96779   0.71580   0.12311  Uiso   1.00
N3352  N     0.11109   0.96823   0.72318   0.12311  Uiso   1.00
N3353  N     0.11224   0.94662   0.51686   0.12311  Uiso   1.00
H3354  H     0.20862   0.81782   0.74459   0.12311  Uiso   0.00
C3355  C     0.22298   0.84326   0.70948   0.12311  Uiso   1.00
C3356  C     0.22483   0.80829   0.53017   0.12311  Uiso   1.00
C3357  C     0.21602   0.82167   0.74471   0.12311  Uiso   1.00
C3358  C     0.20122   0.81396   0.74448   0.12311  Uiso   1.00
C3359  C     0.17918   0.84132   0.72131   0.12311  Uiso   1.00
C3360  C     0.19289   0.84279   0.71580   0.12311  Uiso   1.00
N3361  N     0.23609   0.84323   0.72318   0.12311  Uiso   1.00
N3362  N     0.23724   0.82162   0.51686   0.12311  Uiso   1.00
H3363  H     0.16638   0.94282   0.63041   0.12311  Uiso   0.00
C3364  C     0.15202   0.96826   0.66552   0.12311  Uiso   1.00
C3365  C     0.15017   0.93329   0.59483   0.12311  Uiso   1.00
C3366  C     0.15898   0.94667   0.63029   0.12311  Uiso   1.00
C3367  C     0.17378   0.93896   0.63052   0.12311  Uiso   1.00
C3368  C     0.19582   0.96632   0.65369   0.12311  Uiso   1.00
C3369  C     0.18211   0.96779   0.65920   0.12311  Uiso   1.00
N3370  N     0.13891   0.96823   0.65182   0.12311  Uiso   1.00
N3371  N     0.13776   0.94662   0.60814   0.12311  Uiso   1.00
H3372  H     0.04138   0.81782   0.63041   0.12311  Uiso   0.00
C3373  C     0.02702   0.84326   0.66552   0.12311  Uiso   1.00
C3374  C     0.02517   0.80829   0.59483   0.12311  Uiso   1.00
C3375  C     0.03398   0.82167   0.63029   0.12311  Uiso   1.00
C3376  C     0.04878   0.81396   0.63052   0.12311  Uiso   1.00
C3377  C     0.07082   0.84132   0.65369   0.12311  Uiso   1.00
C3378  C     0.05711   0.84279   0.65920   0.12311  Uiso   1.00
N3379  N     0.01391   0.84323   0.65182   0.12311  Uiso   1.00
N3380  N     0.01276   0.82162   0.60814   0.12311  Uiso   1.00
H3381  H     0.16638   0.80718   0.50541   0.12311  Uiso   0.00
C3382  C     0.15202   0.78174   0.54052   0.12311  Uiso   1.00
C3383  C     0.15017   0.81671   0.71983   0.12311  Uiso   1.00
C3384  C     0.15898   0.80333   0.50529   0.12311  Uiso   1.00
C3385  C     0.17378   0.81104   0.50552   0.12311  Uiso   1.00
C3386  C     0.19582   0.78368   0.52869   0.12311  Uiso   1.00
C3387  C     0.18211   0.78221   0.53420   0.12311  Uiso   1.00
N3388  N     0.13891   0.78177   0.52682   0.12311  Uiso   1.00
N3389  N     0.13776   0.80338   0.73314   0.12311  Uiso   1.00
H3390  H     0.04138   0.93218   0.50541   0.12311  Uiso   0.00
C3391  C     0.02702   0.90674   0.54052   0.12311  Uiso   1.00
C3392  C     0.02517   0.94171   0.71983   0.12311  Uiso   1.00
C3393  C     0.03398   0.92833   0.50529   0.12311  Uiso   1.00
C3394  C     0.04878   0.93604   0.50552   0.12311  Uiso   1.00
C3395  C     0.07082   0.90868   0.52869   0.12311  Uiso   1.00
C3396  C     0.05711   0.90721   0.53420   0.12311  Uiso   1.00
N3397  N     0.01391   0.90677   0.52682   0.12311  Uiso   1.00
N3398  N     0.01276   0.92838   0.73314   0.12311  Uiso   1.00
H3399  H     0.08362   0.80718   0.61959   0.12311  Uiso   0.00
C3400  C     0.09798   0.78174   0.58448   0.12311  Uiso   1.00
C3401  C     0.09983   0.81671   0.65517   0.12311  Uiso   1.00
C3402  C     0.09102   0.80333   0.61971   0.12311  Uiso   1.00
C3403  C     0.07622   0.81104   0.61948   0.12311  Uiso   1.00
C3404  C     0.05418   0.78368   0.59631   0.12311  Uiso   1.00
C3405  C     0.06789   0.78221   0.59080   0.12311  Uiso   1.00
N3406  N     0.11109   0.78177   0.59818   0.12311  Uiso   1.00
N3407  N     0.11224   0.80338   0.64186   0.12311  Uiso   1.00
H3408  H     0.20862   0.93218   0.61959   0.12311  Uiso   0.00
C3409  C     0.22298   0.90674   0.58448   0.12311  Uiso   1.00
C3410  C     0.22483   0.94171   0.65517   0.12311  Uiso   1.00
C3411  C     0.21602   0.92833   0.61971   0.12311  Uiso   1.00
C3412  C     0.20122   0.93604   0.61948   0.12311  Uiso   1.00
C3413  C     0.17918   0.90868   0.59631   0.12311  Uiso   1.00
C3414  C     0.19289   0.90721   0.59080   0.12311  Uiso   1.00
N3415  N     0.23609   0.90677   0.59818   0.12311  Uiso   1.00
N3416  N     0.23724   0.92838   0.64186   0.12311  Uiso   1.00
Fe3417 Fe    0.00000   0.86461   0.56250   0.12311  Uiso   1.00
Fe3418 Fe    0.12500   0.98961   0.56250   0.12311  Uiso   1.00
Fe3419 Fe    0.00000   0.88539   0.68750   0.12311  Uiso   1.00
Fe3420 Fe    0.12500   0.76039   0.68750   0.12311  Uiso   1.00
H3421  H     0.33362   0.94282   0.74459   0.12311  Uiso   0.00
C3422  C     0.34798   0.96826   0.70948   0.12311  Uiso   1.00
C3423  C     0.34983   0.93329   0.53017   0.12311  Uiso   1.00
C3424  C     0.34102   0.94667   0.74471   0.12311  Uiso   1.00
C3425  C     0.32622   0.93896   0.74448   0.12311  Uiso   1.00
C3426  C     0.30418   0.96632   0.72131   0.12311  Uiso   1.00
C3427  C     0.31789   0.96779   0.71580   0.12311  Uiso   1.00
N3428  N     0.36109   0.96823   0.72318   0.12311  Uiso   1.00
N3429  N     0.36224   0.94662   0.51686   0.12311  Uiso   1.00
H3430  H     0.45862   0.81782   0.74459   0.12311  Uiso   0.00
C3431  C     0.47298   0.84326   0.70948   0.12311  Uiso   1.00
C3432  C     0.47483   0.80829   0.53017   0.12311  Uiso   1.00
C3433  C     0.46602   0.82167   0.74471   0.12311  Uiso   1.00
C3434  C     0.45122   0.81396   0.74448   0.12311  Uiso   1.00
C3435  C     0.42918   0.84132   0.72131   0.12311  Uiso   1.00
C3436  C     0.44289   0.84279   0.71580   0.12311  Uiso   1.00
N3437  N     0.48609   0.84323   0.72318   0.12311  Uiso   1.00
N3438  N     0.48724   0.82162   0.51686   0.12311  Uiso   1.00
H3439  H     0.41638   0.94282   0.63041   0.12311  Uiso   0.00
C3440  C     0.40202   0.96826   0.66552   0.12311  Uiso   1.00
C3441  C     0.40017   0.93329   0.59483   0.12311  Uiso   1.00
C3442  C     0.40898   0.94667   0.63029   0.12311  Uiso   1.00
C3443  C     0.42378   0.93896   0.63052   0.12311  Uiso   1.00
C3444  C     0.44582   0.96632   0.65369   0.12311  Uiso   1.00
C3445  C     0.43211   0.96779   0.65920   0.12311  Uiso   1.00
N3446  N     0.38891   0.96823   0.65182   0.12311  Uiso   1.00
N3447  N     0.38776   0.94662   0.60814   0.12311  Uiso   1.00
H3448  H     0.29138   0.81782   0.63041   0.12311  Uiso   0.00
C3449  C     0.27702   0.84326   0.66552   0.12311  Uiso   1.00
C3450  C     0.27517   0.80829   0.59483   0.12311  Uiso   1.00
C3451  C     0.28398   0.82167   0.63029   0.12311  Uiso   1.00
C3452  C     0.29878   0.81396   0.63052   0.12311  Uiso   1.00
C3453  C     0.32082   0.84132   0.65369   0.12311  Uiso   1.00
C3454  C     0.30711   0.84279   0.65920   0.12311  Uiso   1.00
N3455  N     0.26391   0.84323   0.65182   0.12311  Uiso   1.00
N3456  N     0.26276   0.82162   0.60814   0.12311  Uiso   1.00
H3457  H     0.41638   0.80718   0.50541   0.12311  Uiso   0.00
C3458  C     0.40202   0.78174   0.54052   0.12311  Uiso   1.00
C3459  C     0.40017   0.81671   0.71983   0.12311  Uiso   1.00
C3460  C     0.40898   0.80333   0.50529   0.12311  Uiso   1.00
C3461  C     0.42378   0.81104   0.50552   0.12311  Uiso   1.00
C3462  C     0.44582   0.78368   0.52869   0.12311  Uiso   1.00
C3463  C     0.43211   0.78221   0.53420   0.12311  Uiso   1.00
N3464  N     0.38891   0.78177   0.52682   0.12311  Uiso   1.00
N3465  N     0.38776   0.80338   0.73314   0.12311  Uiso   1.00
H3466  H     0.29138   0.93218   0.50541   0.12311  Uiso   0.00
C3467  C     0.27702   0.90674   0.54052   0.12311  Uiso   1.00
C3468  C     0.27517   0.94171   0.71983   0.12311  Uiso   1.00
C3469  C     0.28398   0.92833   0.50529   0.12311  Uiso   1.00
C3470  C     0.29878   0.93604   0.50552   0.12311  Uiso   1.00
C3471  C     0.32082   0.90868   0.52869   0.12311  Uiso   1.00
C3472  C     0.30711   0.90721   0.53420   0.12311  Uiso   1.00
N3473  N     0.26391   0.90677   0.52682   0.12311  Uiso   1.00
N3474  N     0.26276   0.92838   0.73314   0.12311  Uiso   1.00
H3475  H     0.33362   0.80718   0.61959   0.12311  Uiso   0.00
C3476  C     0.34798   0.78174   0.58448   0.12311  Uiso   1.00
C3477  C     0.34983   0.81671   0.65517   0.12311  Uiso   1.00
C3478  C     0.34102   0.80333   0.61971   0.12311  Uiso   1.00
C3479  C     0.32622   0.81104   0.61948   0.12311  Uiso   1.00
C3480  C     0.30418   0.78368   0.59631   0.12311  Uiso   1.00
C3481  C     0.31789   0.78221   0.59080   0.12311  Uiso   1.00
N3482  N     0.36109   0.78177   0.59818   0.12311  Uiso   1.00
N3483  N     0.36224   0.80338   0.64186   0.12311  Uiso   1.00
H3484  H     0.45862   0.93218   0.61959   0.12311  Uiso   0.00
C3485  C     0.47298   0.90674   0.58448   0.12311  Uiso   1.00
C3486  C     0.47483   0.94171   0.65517   0.12311  Uiso   1.00
C3487  C     0.46602   0.92833   0.61971   0.12311  Uiso   1.00
C3488  C     0.45122   0.93604   0.61948   0.12311  Uiso   1.00
C3489  C     0.42918   0.90868   0.59631   0.12311  Uiso   1.00
C3490  C     0.44289   0.90721   0.59080   0.12311  Uiso   1.00
N3491  N     0.48609   0.90677   0.59818   0.12311  Uiso   1.00
N3492  N     0.48724   0.92838   0.64186   0.12311  Uiso   1.00
Fe3493 Fe    0.25000   0.86461   0.56250   0.12311  Uiso   1.00
Fe3494 Fe    0.37500   0.98961   0.56250   0.12311  Uiso   1.00
Fe3495 Fe    0.25000   0.88539   0.68750   0.12311  Uiso   1.00
Fe3496 Fe    0.37500   0.76039   0.68750   0.12311  Uiso   1.00
H3497  H     0.58362   0.94282   0.74459   0.12311  Uiso   0.00
C3498  C     0.59798   0.96826   0.70948   0.12311  Uiso   1.00
C3499  C     0.59983   0.93329   0.53017   0.12311  Uiso   1.00
C3500  C     0.59102   0.94667   0.74471   0.12311  Uiso   1.00
C3501  C     0.57622   0.93896   0.74448   0.12311  Uiso   1.00
C3502  C     0.55418   0.96632   0.72131   0.12311  Uiso   1.00
C3503  C     0.56789   0.96779   0.71580   0.12311  Uiso   1.00
N3504  N     0.61109   0.96823   0.72318   0.12311  Uiso   1.00
N3505  N     0.61224   0.94662   0.51686   0.12311  Uiso   1.00
H3506  H     0.70862   0.81782   0.74459   0.12311  Uiso   0.00
C3507  C     0.72298   0.84326   0.70948   0.12311  Uiso   1.00
C3508  C     0.72483   0.80829   0.53017   0.12311  Uiso   1.00
C3509  C     0.71602   0.82167   0.74471   0.12311  Uiso   1.00
C3510  C     0.70122   0.81396   0.74448   0.12311  Uiso   1.00
C3511  C     0.67918   0.84132   0.72131   0.12311  Uiso   1.00
C3512  C     0.69289   0.84279   0.71580   0.12311  Uiso   1.00
N3513  N     0.73609   0.84323   0.72318   0.12311  Uiso   1.00
N3514  N     0.73724   0.82162   0.51686   0.12311  Uiso   1.00
H3515  H     0.66638   0.94282   0.63041   0.12311  Uiso   0.00
C3516  C     0.65202   0.96826   0.66552   0.12311  Uiso   1.00
C3517  C     0.65017   0.93329   0.59483   0.12311  Uiso   1.00
C3518  C     0.65898   0.94667   0.63029   0.12311  Uiso   1.00
C3519  C     0.67378   0.93896   0.63052   0.12311  Uiso   1.00
C3520  C     0.69582   0.96632   0.65369   0.12311  Uiso   1.00
C3521  C     0.68211   0.96779   0.65920   0.12311  Uiso   1.00
N3522  N     0.63891   0.96823   0.65182   0.12311  Uiso   1.00
N3523  N     0.63776   0.94662   0.60814   0.12311  Uiso   1.00
H3524  H     0.54138   0.81782   0.63041   0.12311  Uiso   0.00
C3525  C     0.52702   0.84326   0.66552   0.12311  Uiso   1.00
C3526  C     0.52517   0.80829   0.59483   0.12311  Uiso   1.00
C3527  C     0.53398   0.82167   0.63029   0.12311  Uiso   1.00
C3528  C     0.54878   0.81396   0.63052   0.12311  Uiso   1.00
C3529  C     0.57082   0.84132   0.65369   0.12311  Uiso   1.00
C3530  C     0.55711   0.84279   0.65920   0.12311  Uiso   1.00
N3531  N     0.51391   0.84323   0.65182   0.12311  Uiso   1.00
N3532  N     0.51276   0.82162   0.60814   0.12311  Uiso   1.00
H3533  H     0.66638   0.80718   0.50541   0.12311  Uiso   0.00
C3534  C     0.65202   0.78174   0.54052   0.12311  Uiso   1.00
C3535  C     0.65017   0.81671   0.71983   0.12311  Uiso   1.00
C3536  C     0.65898   0.80333   0.50529   0.12311  Uiso   1.00
C3537  C     0.67378   0.81104   0.50552   0.12311  Uiso   1.00
C3538  C     0.69582   0.78368   0.52869   0.12311  Uiso   1.00
C3539  C     0.68211   0.78221   0.53420   0.12311  Uiso   1.00
N3540  N     0.63891   0.78177   0.52682   0.12311  Uiso   1.00
N3541  N     0.63776   0.80338   0.73314   0.12311  Uiso   1.00
H3542  H     0.54138   0.93218   0.50541   0.12311  Uiso   0.00
C3543  C     0.52702   0.90674   0.54052   0.12311  Uiso   1.00
C3544  C     0.52517   0.94171   0.71983   0.12311  Uiso   1.00
C3545  C     0.53398   0.92833   0.50529   0.12311  Uiso   1.00
C3546  C     0.54878   0.93604   0.50552   0.12311  Uiso   1.00
C3547  C     0.57082   0.90868   0.52869   0.12311  Uiso   1.00
C3548  C     0.55711   0.90721   0.53420   0.12311  Uiso   1.00
N3549  N     0.51391   0.90677   0.52682   0.12311  Uiso   1.00
N3550  N     0.51276   0.92838   0.73314   0.12311  Uiso   1.00
H3551  H     0.58362   0.80718   0.61959   0.12311  Uiso   0.00
C3552  C     0.59798   0.78174   0.58448   0.12311  Uiso   1.00
C3553  C     0.59983   0.81671   0.65517   0.12311  Uiso   1.00
C3554  C     0.59102   0.80333   0.61971   0.12311  Uiso   1.00
C3555  C     0.57622   0.81104   0.61948   0.12311  Uiso   1.00
C3556  C     0.55418   0.78368   0.59631   0.12311  Uiso   1.00
C3557  C     0.56789   0.78221   0.59080   0.12311  Uiso   1.00
N3558  N     0.61109   0.78177   0.59818   0.12311  Uiso   1.00
N3559  N     0.61224   0.80338   0.64186   0.12311  Uiso   1.00
H3560  H     0.70862   0.93218   0.61959   0.12311  Uiso   0.00
C3561  C     0.72298   0.90674   0.58448   0.12311  Uiso   1.00
C3562  C     0.72483   0.94171   0.65517   0.12311  Uiso   1.00
C3563  C     0.71602   0.92833   0.61971   0.12311  Uiso   1.00
C3564  C     0.70122   0.93604   0.61948   0.12311  Uiso   1.00
C3565  C     0.67918   0.90868   0.59631   0.12311  Uiso   1.00
C3566  C     0.69289   0.90721   0.59080   0.12311  Uiso   1.00
N3567  N     0.73609   0.90677   0.59818   0.12311  Uiso   1.00
N3568  N     0.73724   0.92838   0.64186   0.12311  Uiso   1.00
Fe3569 Fe    0.50000   0.86461   0.56250   0.12311  Uiso   1.00
Fe3570 Fe    0.62500   0.98961   0.56250   0.12311  Uiso   1.00
Fe3571 Fe    0.50000   0.88539   0.68750   0.12311  Uiso   1.00
Fe3572 Fe    0.62500   0.76039   0.68750   0.12311  Uiso   1.00
H3573  H     0.83362   0.94282   0.74459   0.12311  Uiso   0.00
C3574  C     0.84798   0.96826   0.70948   0.12311  Uiso   1.00
C3575  C     0.84983   0.93329   0.53017   0.12311  Uiso   1.00
C3576  C     0.84102   0.94667   0.74471   0.12311  Uiso   1.00
C3577  C     0.82622   0.93896   0.74448   0.12311  Uiso   1.00
C3578  C     0.80418   0.96632   0.72131   0.12311  Uiso   1.00
C3579  C     0.81789   0.96779   0.71580   0.12311  Uiso   1.00
N3580  N     0.86109   0.96823   0.72318   0.12311  Uiso   1.00
N3581  N     0.86224   0.94662   0.51686   0.12311  Uiso   1.00
H3582  H     0.95862   0.81782   0.74459   0.12311  Uiso   0.00
C3583  C     0.97298   0.84326   0.70948   0.12311  Uiso   1.00
C3584  C     0.97483   0.80829   0.53017   0.12311  Uiso   1.00
C3585  C     0.96602   0.82167   0.74471   0.12311  Uiso   1.00
C3586  C     0.95122   0.81396   0.74448   0.12311  Uiso   1.00
C3587  C     0.92918   0.84132   0.72131   0.12311  Uiso   1.00
C3588  C     0.94289   0.84279   0.71580   0.12311  Uiso   1.00
N3589  N     0.98609   0.84323   0.72318   0.12311  Uiso   1.00
N3590  N     0.98724   0.82162   0.51686   0.12311  Uiso   1.00
H3591  H     0.91638   0.94282   0.63041   0.12311  Uiso   0.00
C3592  C     0.90202   0.96826   0.66552   0.12311  Uiso   1.00
C3593  C     0.90017   0.93329   0.59483   0.12311  Uiso   1.00
C3594  C     0.90898   0.94667   0.63029   0.12311  Uiso   1.00
C3595  C     0.92378   0.93896   0.63052   0.12311  Uiso   1.00
C3596  C     0.94582   0.96632   0.65369   0.12311  Uiso   1.00
C3597  C     0.93211   0.96779   0.65920   0.12311  Uiso   1.00
N3598  N     0.88891   0.96823   0.65182   0.12311  Uiso   1.00
N3599  N     0.88776   0.94662   0.60814   0.12311  Uiso   1.00
H3600  H     0.79138   0.81782   0.63041   0.12311  Uiso   0.00
C3601  C     0.77702   0.84326   0.66552   0.12311  Uiso   1.00
C3602  C     0.77517   0.80829   0.59483   0.12311  Uiso   1.00
C3603  C     0.78398   0.82167   0.63029   0.12311  Uiso   1.00
C3604  C     0.79878   0.81396   0.63052   0.12311  Uiso   1.00
C3605  C     0.82082   0.84132   0.65369   0.12311  Uiso   1.00
C3606  C     0.80711   0.84279   0.65920   0.12311  Uiso   1.00
N3607  N     0.76391   0.84323   0.65182   0.12311  Uiso   1.00
N3608  N     0.76276   0.82162   0.60814   0.12311  Uiso   1.00
H3609  H     0.91638   0.80718   0.50541   0.12311  Uiso   0.00
C3610  C     0.90202   0.78174   0.54052   0.12311  Uiso   1.00
C3611  C     0.90017   0.81671   0.71983   0.12311  Uiso   1.00
C3612  C     0.90898   0.80333   0.50529   0.12311  Uiso   1.00
C3613  C     0.92378   0.81104   0.50552   0.12311  Uiso   1.00
C3614  C     0.94582   0.78368   0.52869   0.12311  Uiso   1.00
C3615  C     0.93211   0.78221   0.53420   0.12311  Uiso   1.00
N3616  N     0.88891   0.78177   0.52682   0.12311  Uiso   1.00
N3617  N     0.88776   0.80338   0.73314   0.12311  Uiso   1.00
H3618  H     0.79138   0.93218   0.50541   0.12311  Uiso   0.00
C3619  C     0.77702   0.90674   0.54052   0.12311  Uiso   1.00
C3620  C     0.77517   0.94171   0.71983   0.12311  Uiso   1.00
C3621  C     0.78398   0.92833   0.50529   0.12311  Uiso   1.00
C3622  C     0.79878   0.93604   0.50552   0.12311  Uiso   1.00
C3623  C     0.82082   0.90868   0.52869   0.12311  Uiso   1.00
C3624  C     0.80711   0.90721   0.53420   0.12311  Uiso   1.00
N3625  N     0.76391   0.90677   0.52682   0.12311  Uiso   1.00
N3626  N     0.76276   0.92838   0.73314   0.12311  Uiso   1.00
H3627  H     0.83362   0.80718   0.61959   0.12311  Uiso   0.00
C3628  C     0.84798   0.78174   0.58448   0.12311  Uiso   1.00
C3629  C     0.84983   0.81671   0.65517   0.12311  Uiso   1.00
C3630  C     0.84102   0.80333   0.61971   0.12311  Uiso   1.00
C3631  C     0.82622   0.81104   0.61948   0.12311  Uiso   1.00
C3632  C     0.80418   0.78368   0.59631   0.12311  Uiso   1.00
C3633  C     0.81789   0.78221   0.59080   0.12311  Uiso   1.00
N3634  N     0.86109   0.78177   0.59818   0.12311  Uiso   1.00
N3635  N     0.86224   0.80338   0.64186   0.12311  Uiso   1.00
H3636  H     0.95862   0.93218   0.61959   0.12311  Uiso   0.00
C3637  C     0.97298   0.90674   0.58448   0.12311  Uiso   1.00
C3638  C     0.97483   0.94171   0.65517   0.12311  Uiso   1.00
C3639  C     0.96602   0.92833   0.61971   0.12311  Uiso   1.00
C3640  C     0.95122   0.93604   0.61948   0.12311  Uiso   1.00
C3641  C     0.92918   0.90868   0.59631   0.12311  Uiso   1.00
C3642  C     0.94289   0.90721   0.59080   0.12311  Uiso   1.00
N3643  N     0.98609   0.90677   0.59818   0.12311  Uiso   1.00
N3644  N     0.98724   0.92838   0.64186   0.12311  Uiso   1.00
Fe3645 Fe    0.75000   0.86461   0.56250   0.12311  Uiso   1.00
Fe3646 Fe    0.87500   0.98961   0.56250   0.12311  Uiso   1.00
Fe3647 Fe    0.75000   0.88539   0.68750   0.12311  Uiso   1.00
Fe3648 Fe    0.87500   0.76039   0.68750   0.12311  Uiso   1.00
H3649  H     0.08362   0.19282   0.99459   0.12311  Uiso   0.00
C3650  C     0.09798   0.21826   0.95948   0.12311  Uiso   1.00
C3651  C     0.09983   0.18329   0.78017   0.12311  Uiso   1.00
C3652  C     0.09102   0.19667   0.99471   0.12311  Uiso   1.00
C3653  C     0.07622   0.18896   0.99448   0.12311  Uiso   1.00
C3654  C     0.05418   0.21632   0.97131   0.12311  Uiso   1.00
C3655  C     0.06789   0.21779   0.96580   0.12311  Uiso   1.00
N3656  N     0.11109   0.21823   0.97318   0.12311  Uiso   1.00
N3657  N     0.11224   0.19662   0.76686   0.12311  Uiso   1.00
H3658  H     0.20862   0.06782   0.99459   0.12311  Uiso   0.00
C3659  C     0.22298   0.09326   0.95948   0.12311  Uiso   1.00
C3660  C     0.22483   0.05829   0.78017   0.12311  Uiso   1.00
C3661  C     0.21602   0.07167   0.99471   0.12311  Uiso   1.00
C3662  C     0.20122   0.06396   0.99448   0.12311  Uiso   1.00
C3663  C     0.17918   0.09132   0.97131   0.12311  Uiso   1.00
C3664  C     0.19289   0.09279   0.96580   0.12311  Uiso   1.00
N3665  N     0.23609   0.09323   0.97318   0.12311  Uiso   1.00
N3666  N     0.23724   0.07162   0.76686   0.12311  Uiso   1.00
H3667  H     0.16638   0.19282   0.88041   0.12311  Uiso   0.00
C3668  C     0.15202   0.21826   0.91552   0.12311  Uiso   1.00
C3669  C     0.15017   0.18329   0.84483   0.12311  Uiso   1.00
C3670  C     0.15898   0.19667   0.88029   0.12311  Uiso   1.00
C3671  C     0.17378   0.18896   0.88052   0.12311  Uiso   1.00
C3672  C     0.19582   0.21632   0.90369   0.12311  Uiso   1.00
C3673  C     0.18211   0.21779   0.90920   0.12311  Uiso   1.00
N3674  N     0.13891   0.21823   0.90182   0.12311  Uiso   1.00
N3675  N     0.13776   0.19662   0.85814   0.12311  Uiso   1.00
H3676  H     0.04138   0.06782   0.88041   0.12311  Uiso   0.00
C3677  C     0.02702   0.09326   0.91552   0.12311  Uiso   1.00
C3678  C     0.02517   0.05829   0.84483   0.12311  Uiso   1.00
C3679  C     0.03398   0.07167   0.88029   0.12311  Uiso   1.00
C3680  C     0.04878   0.06396   0.88052   0.12311  Uiso   1.00
C3681  C     0.07082   0.09132   0.90369   0.12311  Uiso   1.00
C3682  C     0.05711   0.09279   0.90920   0.12311  Uiso   1.00
N3683  N     0.01391   0.09323   0.90182   0.12311  Uiso   1.00
N3684  N     0.01276   0.07162   0.85814   0.12311  Uiso   1.00
H3685  H     0.16638   0.05718   0.75541   0.12311  Uiso   0.00
C3686  C     0.15202   0.03174   0.79052   0.12311  Uiso   1.00
C3687  C     0.15017   0.06671   0.96983   0.12311  Uiso   1.00
C3688  C     0.15898   0.05333   0.75529   0.12311  Uiso   1.00
C3689  C     0.17378   0.06104   0.75552   0.12311  Uiso   1.00
C3690  C     0.19582   0.03368   0.77869   0.12311  Uiso   1.00
C3691  C     0.18211   0.03221   0.78420   0.12311  Uiso   1.00
N3692  N     0.13891   0.03177   0.77682   0.12311  Uiso   1.00
N3693  N     0.13776   0.05338   0.98314   0.12311  Uiso   1.00
H3694  H     0.04138   0.18218   0.75541   0.12311  Uiso   0.00
C3695  C     0.02702   0.15674   0.79052   0.12311  Uiso   1.00
C3696  C     0.02517   0.19171   0.96983   0.12311  Uiso   1.00
C3697  C     0.03398   0.17833   0.75529   0.12311  Uiso   1.00
C3698  C     0.04878   0.18604   0.75552   0.12311  Uiso   1.00
C3699  C     0.07082   0.15868   0.77869   0.12311  Uiso   1.00
C3700  C     0.05711   0.15721   0.78420   0.12311  Uiso   1.00
N3701  N     0.01391   0.15677   0.77682   0.12311  Uiso   1.00
N3702  N     0.01276   0.17838   0.98314   0.12311  Uiso   1.00
H3703  H     0.08362   0.05718   0.86959   0.12311  Uiso   0.00
C3704  C     0.09798   0.03174   0.83448   0.12311  Uiso   1.00
C3705  C     0.09983   0.06671   0.90517   0.12311  Uiso   1.00
C3706  C     0.09102   0.05333   0.86971   0.12311  Uiso   1.00
C3707  C     0.07622   0.06104   0.86948   0.12311  Uiso   1.00
C3708  C     0.05418   0.03368   0.84631   0.12311  Uiso   1.00
C3709  C     0.06789   0.03221   0.84080   0.12311  Uiso   1.00
N3710  N     0.11109   0.03177   0.84818   0.12311  Uiso   1.00
N3711  N     0.11224   0.05338   0.89186   0.12311  Uiso   1.00
H3712  H     0.20862   0.18218   0.86959   0.12311  Uiso   0.00
C3713  C     0.22298   0.15674   0.83448   0.12311  Uiso   1.00
C3714  C     0.22483   0.19171   0.90517   0.12311  Uiso   1.00
C3715  C     0.21602   0.17833   0.86971   0.12311  Uiso   1.00
C3716  C     0.20122   0.18604   0.86948   0.12311  Uiso   1.00
C3717  C     0.17918   0.15868   0.84631   0.12311  Uiso   1.00
C3718  C     0.19289   0.15721   0.84080   0.12311  Uiso   1.00
N3719  N     0.23609   0.15677   0.84818   0.12311  Uiso   1.00
N3720  N     0.23724   0.17838   0.89186   0.12311  Uiso   1.00
Fe3721 Fe    0.00000   0.11461   0.81250   0.12311  Uiso   1.00
Fe3722 Fe    0.12500   0.23961   0.81250   0.12311  Uiso   1.00
Fe3723 Fe    0.00000   0.13539   0.93750   0.12311  Uiso   1.00
Fe3724 Fe    0.12500   0.01039   0.93750   0.12311  Uiso   1.00
H3725  H     0.33362   0.19282   0.99459   0.12311  Uiso   0.00
C3726  C     0.34798   0.21826   0.95948   0.12311  Uiso   1.00
C3727  C     0.34983   0.18329   0.78017   0.12311  Uiso   1.00
C3728  C     0.34102   0.19667   0.99471   0.12311  Uiso   1.00
C3729  C     0.32622   0.18896   0.99448   0.12311  Uiso   1.00
C3730  C     0.30418   0.21632   0.97131   0.12311  Uiso   1.00
C3731  C     0.31789   0.21779   0.96580   0.12311  Uiso   1.00
N3732  N     0.36109   0.21823   0.97318   0.12311  Uiso   1.00
N3733  N     0.36224   0.19662   0.76686   0.12311  Uiso   1.00
H3734  H     0.45862   0.06782   0.99459   0.12311  Uiso   0.00
C3735  C     0.47298   0.09326   0.95948   0.12311  Uiso   1.00
C3736  C     0.47483   0.05829   0.78017   0.12311  Uiso   1.00
C3737  C     0.46602   0.07167   0.99471   0.12311  Uiso   1.00
C3738  C     0.45122   0.06396   0.99448   0.12311  Uiso   1.00
C3739  C     0.42918   0.09132   0.97131   0.12311  Uiso   1.00
C3740  C     0.44289   0.09279   0.96580   0.12311  Uiso   1.00
N3741  N     0.48609   0.09323   0.97318   0.12311  Uiso   1.00
N3742  N     0.48724   0.07162   0.76686   0.12311  Uiso   1.00
H3743  H     0.41638   0.19282   0.88041   0.12311  Uiso   0.00
C3744  C     0.40202   0.21826   0.91552   0.12311  Uiso   1.00
C3745  C     0.40017   0.18329   0.84483   0.12311  Uiso   1.00
C3746  C     0.40898   0.19667   0.88029   0.12311  Uiso   1.00
C3747  C     0.42378   0.18896   0.88052   0.12311  Uiso   1.00
C3748  C     0.44582   0.21632   0.90369   0.12311  Uiso   1.00
C3749  C     0.43211   0.21779   0.90920   0.12311  Uiso   1.00
N3750  N     0.38891   0.21823   0.90182   0.12311  Uiso   1.00
N3751  N     0.38776   0.19662   0.85814   0.12311  Uiso   1.00
H3752  H     0.29138   0.06782   0.88041   0.12311  Uiso   0.00
C3753  C     0.27702   0.09326   0.91552   0.12311  Uiso   1.00
C3754  C     0.27517   0.05829   0.84483   0.12311  Uiso   1.00
C3755  C     0.28398   0.07167   0.88029   0.12311  Uiso   1.00
C3756  C     0.29878   0.06396   0.88052   0.12311  Uiso   1.00
C3757  C     0.32082   0.09132   0.90369   0.12311  Uiso   1.00
C3758  C     0.30711   0.09279   0.90920   0.12311  Uiso   1.00
N3759  N     0.26391   0.09323   0.90182   0.12311  Uiso   1.00
N3760  N     0.26276   0.07162   0.85814   0.12311  Uiso   1.00
H3761  H     0.41638   0.05718   0.75541   0.12311  Uiso   0.00
C3762  C     0.40202   0.03174   0.79052   0.12311  Uiso   1.00
C3763  C     0.40017   0.06671   0.96983   0.12311  Uiso   1.00
C3764  C     0.40898   0.05333   0.75529   0.12311  Uiso   1.00
C3765  C     0.42378   0.06104   0.75552   0.12311  Uiso   1.00
C3766  C     0.44582   0.03368   0.77869   0.12311  Uiso   1.00
C3767  C     0.43211   0.03221   0.78420   0.12311  Uiso   1.00
N3768  N     0.38891   0.03177   0.77682   0.12311  Uiso   1.00
N3769  N     0.38776   0.05338   0.98314   0.12311  Uiso   1.00
H3770  H     0.29138   0.18218   0.75541   0.12311  Uiso   0.00
C3771  C     0.27702   0.15674   0.79052   0.12311  Uiso   1.00
C3772  C     0.27517   0.19171   0.96983   0.12311  Uiso   1.00
C3773  C     0.28398   0.17833   0.75529   0.12311  Uiso   1.00
C3774  C     0.29878   0.18604   0.75552   0.12311  Uiso   1.00
C3775  C     0.32082   0.15868   0.77869   0.12311  Uiso   1.00
C3776  C     0.30711   0.15721   0.78420   0.12311  Uiso   1.00
N3777  N     0.26391   0.15677   0.77682   0.12311  Uiso   1.00
N3778  N     0.26276   0.17838   0.98314   0.12311  Uiso   1.00
H3779  H     0.33362   0.05718   0.86959   0.12311  Uiso   0.00
C3780  C     0.34798   0.03174   0.83448   0.12311  Uiso   1.00
C3781  C     0.34983   0.06671   0.90517   0.12311  Uiso   1.00
C3782  C     0.34102   0.05333   0.86971   0.12311  Uiso   1.00
C3783  C     0.32622   0.06104   0.86948   0.12311  Uiso   1.00
C3784  C     0.30418   0.03368   0.84631   0.12311  Uiso   1.00
C3785  C     0.31789   0.03221   0.84080   0.12311  Uiso   1.00
N3786  N     0.36109   0.03177   0.84818   0.12311  Uiso   1.00
N3787  N     0.36224   0.05338   0.89186   0.12311  Uiso   1.00
H3788  H     0.45862   0.18218   0.86959   0.12311  Uiso   0.00
C3789  C     0.47298   0.15674   0.83448   0.12311  Uiso   1.00
C3790  C     0.47483   0.19171   0.90517   0.12311  Uiso   1.00
C3791  C     0.46602   0.17833   0.86971   0.12311  Uiso   1.00
C3792  C     0.45122   0.18604   0.86948   0.12311  Uiso   1.00
C3793  C     0.42918   0.15868   0.84631   0.12311  Uiso   1.00
C3794  C     0.44289   0.15721   0.84080   0.12311  Uiso   1.00
N3795  N     0.48609   0.15677   0.84818   0.12311  Uiso   1.00
N3796  N     0.48724   0.17838   0.89186   0.12311  Uiso   1.00
Fe3797 Fe    0.25000   0.11461   0.81250   0.12311  Uiso   1.00
Fe3798 Fe    0.37500   0.23961   0.81250   0.12311  Uiso   1.00
Fe3799 Fe    0.25000   0.13539   0.93750   0.12311  Uiso   1.00
Fe3800 Fe    0.37500   0.01039   0.93750   0.12311  Uiso   1.00
H3801  H     0.58362   0.19282   0.99459   0.12311  Uiso   0.00
C3802  C     0.59798   0.21826   0.95948   0.12311  Uiso   1.00
C3803  C     0.59983   0.18329   0.78017   0.12311  Uiso   1.00
C3804  C     0.59102   0.19667   0.99471   0.12311  Uiso   1.00
C3805  C     0.57622   0.18896   0.99448   0.12311  Uiso   1.00
C3806  C     0.55418   0.21632   0.97131   0.12311  Uiso   1.00
C3807  C     0.56789   0.21779   0.96580   0.12311  Uiso   1.00
N3808  N     0.61109   0.21823   0.97318   0.12311  Uiso   1.00
N3809  N     0.61224   0.19662   0.76686   0.12311  Uiso   1.00
H3810  H     0.70862   0.06782   0.99459   0.12311  Uiso   0.00
C3811  C     0.72298   0.09326   0.95948   0.12311  Uiso   1.00
C3812  C     0.72483   0.05829   0.78017   0.12311  Uiso   1.00
C3813  C     0.71602   0.07167   0.99471   0.12311  Uiso   1.00
C3814  C     0.70122   0.06396   0.99448   0.12311  Uiso   1.00
C3815  C     0.67918   0.09132   0.97131   0.12311  Uiso   1.00
C3816  C     0.69289   0.09279   0.96580   0.12311  Uiso   1.00
N3817  N     0.73609   0.09323   0.97318   0.12311  Uiso   1.00
N3818  N     0.73724   0.07162   0.76686   0.12311  Uiso   1.00
H3819  H     0.66638   0.19282   0.88041   0.12311  Uiso   0.00
C3820  C     0.65202   0.21826   0.91552   0.12311  Uiso   1.00
C3821  C     0.65017   0.18329   0.84483   0.12311  Uiso   1.00
C3822  C     0.65898   0.19667   0.88029   0.12311  Uiso   1.00
C3823  C     0.67378   0.18896   0.88052   0.12311  Uiso   1.00
C3824  C     0.69582   0.21632   0.90369   0.12311  Uiso   1.00
C3825  C     0.68211   0.21779   0.90920   0.12311  Uiso   1.00
N3826  N     0.63891   0.21823   0.90182   0.12311  Uiso   1.00
N3827  N     0.63776   0.19662   0.85814   0.12311  Uiso   1.00
H3828  H     0.54138   0.06782   0.88041   0.12311  Uiso   0.00
C3829  C     0.52702   0.09326   0.91552   0.12311  Uiso   1.00
C3830  C     0.52517   0.05829   0.84483   0.12311  Uiso   1.00
C3831  C     0.53398   0.07167   0.88029   0.12311  Uiso   1.00
C3832  C     0.54878   0.06396   0.88052   0.12311  Uiso   1.00
C3833  C     0.57082   0.09132   0.90369   0.12311  Uiso   1.00
C3834  C     0.55711   0.09279   0.90920   0.12311  Uiso   1.00
N3835  N     0.51391   0.09323   0.90182   0.12311  Uiso   1.00
N3836  N     0.51276   0.07162   0.85814   0.12311  Uiso   1.00
H3837  H     0.66638   0.05718   0.75541   0.12311  Uiso   0.00
C3838  C     0.65202   0.03174   0.79052   0.12311  Uiso   1.00
C3839  C     0.65017   0.06671   0.96983   0.12311  Uiso   1.00
C3840  C     0.65898   0.05333   0.75529   0.12311  Uiso   1.00
C3841  C     0.67378   0.06104   0.75552   0.12311  Uiso   1.00
C3842  C     0.69582   0.03368   0.77869   0.12311  Uiso   1.00
C3843  C     0.68211   0.03221   0.78420   0.12311  Uiso   1.00
N3844  N     0.63891   0.03177   0.77682   0.12311  Uiso   1.00
N3845  N     0.63776   0.05338   0.98314   0.12311  Uiso   1.00
H3846  H     0.54138   0.18218   0.75541   0.12311  Uiso   0.00
C3847  C     0.52702   0.15674   0.79052   0.12311  Uiso   1.00
C3848  C     0.52517   0.19171   0.96983   0.12311  Uiso   1.00
C3849  C     0.53398   0.17833   0.75529   0.12311  Uiso   1.00
C3850  C     0.54878   0.18604   0.75552   0.12311  Uiso   1.00
C3851  C     0.57082   0.15868   0.77869   0.12311  Uiso   1.00
C3852  C     0.55711   0.15721   0.78420   0.12311  Uiso   1.00
N3853  N     0.51391   0.15677   0.77682   0.12311  Uiso   1.00
N3854  N     0.51276   0.17838   0.98314   0.12311  Uiso   1.00
H3855  H     0.58362   0.05718   0.86959   0.12311  Uiso   0.00
C3856  C     0.59798   0.03174   0.83448   0.12311  Uiso   1.00
C3857  C     0.59983   0.06671   0.90517   0.12311  Uiso   1.00
C3858  C     0.59102   0.05333   0.86971   0.12311  Uiso   1.00
C3859  C     0.57622   0.06104   0.86948   0.12311  Uiso   1.00
C3860  C     0.55418   0.03368   0.84631   0.12311  Uiso   1.00
C3861  C     0.56789   0.03221   0.84080   0.12311  Uiso   1.00
N3862  N     0.61109   0.03177   0.84818   0.12311  Uiso   1.00
N3863  N     0.61224   0.05338   0.89186   0.12311  Uiso   1.00
H3864  H     0.70862   0.18218   0.86959   0.12311  Uiso   0.00
C3865  C     0.72298   0.15674   0.83448   0.12311  Uiso   1.00
C3866  C     0.72483   0.19171   0.90517   0.12311  Uiso   1.00
C3867  C     0.71602   0.17833   0.86971   0.12311  Uiso   1.00
C3868  C     0.70122   0.18604   0.86948   0.12311  Uiso   1.00
C3869  C     0.67918   0.15868   0.84631   0.12311  Uiso   1.00
C3870  C     0.69289   0.15721   0.84080   0.12311  Uiso   1.00
N3871  N     0.73609   0.15677   0.84818   0.12311  Uiso   1.00
N3872  N     0.73724   0.17838   0.89186   0.12311  Uiso   1.00
Fe3873 Fe    0.50000   0.11461   0.81250   0.12311  Uiso   1.00
Fe3874 Fe    0.62500   0.23961   0.81250   0.12311  Uiso   1.00
Fe3875 Fe    0.50000   0.13539   0.93750   0.12311  Uiso   1.00
Fe3876 Fe    0.62500   0.01039   0.93750   0.12311  Uiso   1.00
H3877  H     0.83362   0.19282   0.99459   0.12311  Uiso   0.00
C3878  C     0.84798   0.21826   0.95948   0.12311  Uiso   1.00
C3879  C     0.84983   0.18329   0.78017   0.12311  Uiso   1.00
C3880  C     0.84102   0.19667   0.99471   0.12311  Uiso   1.00
C3881  C     0.82622   0.18896   0.99448   0.12311  Uiso   1.00
C3882  C     0.80418   0.21632   0.97131   0.12311  Uiso   1.00
C3883  C     0.81789   0.21779   0.96580   0.12311  Uiso   1.00
N3884  N     0.86109   0.21823   0.97318   0.12311  Uiso   1.00
N3885  N     0.86224   0.19662   0.76686   0.12311  Uiso   1.00
H3886  H     0.95862   0.06782   0.99459   0.12311  Uiso   0.00
C3887  C     0.97298   0.09326   0.95948   0.12311  Uiso   1.00
C3888  C     0.97483   0.05829   0.78017   0.12311  Uiso   1.00
C3889  C     0.96602   0.07167   0.99471   0.12311  Uiso   1.00
C3890  C     0.95122   0.06396   0.99448   0.12311  Uiso   1.00
C3891  C     0.92918   0.09132   0.97131   0.12311  Uiso   1.00
C3892  C     0.94289   0.09279   0.96580   0.12311  Uiso   1.00
N3893  N     0.98609   0.09323   0.97318   0.12311  Uiso   1.00
N3894  N     0.98724   0.07162   0.76686   0.12311  Uiso   1.00
H3895  H     0.91638   0.19282   0.88041   0.12311  Uiso   0.00
C3896  C     0.90202   0.21826   0.91552   0.12311  Uiso   1.00
C3897  C     0.90017   0.18329   0.84483   0.12311  Uiso   1.00
C3898  C     0.90898   0.19667   0.88029   0.12311  Uiso   1.00
C3899  C     0.92378   0.18896   0.88052   0.12311  Uiso   1.00
C3900  C     0.94582   0.21632   0.90369   0.12311  Uiso   1.00
C3901  C     0.93211   0.21779   0.90920   0.12311  Uiso   1.00
N3902  N     0.88891   0.21823   0.90182   0.12311  Uiso   1.00
N3903  N     0.88776   0.19662   0.85814   0.12311  Uiso   1.00
H3904  H     0.79138   0.06782   0.88041   0.12311  Uiso   0.00
C3905  C     0.77702   0.09326   0.91552   0.12311  Uiso   1.00
C3906  C     0.77517   0.05829   0.84483   0.12311  Uiso   1.00
C3907  C     0.78398   0.07167   0.88029   0.12311  Uiso   1.00
C3908  C     0.79878   0.06396   0.88052   0.12311  Uiso   1.00
C3909  C     0.82082   0.09132   0.90369   0.12311  Uiso   1.00
C3910  C     0.80711   0.09279   0.90920   0.12311  Uiso   1.00
N3911  N     0.76391   0.09323   0.90182   0.12311  Uiso   1.00
N3912  N     0.76276   0.07162   0.85814   0.12311  Uiso   1.00
H3913  H     0.91638   0.05718   0.75541   0.12311  Uiso   0.00
C3914  C     0.90202   0.03174   0.79052   0.12311  Uiso   1.00
C3915  C     0.90017   0.06671   0.96983   0.12311  Uiso   1.00
C3916  C     0.90898   0.05333   0.75529   0.12311  Uiso   1.00
C3917  C     0.92378   0.06104   0.75552   0.12311  Uiso   1.00
C3918  C     0.94582   0.03368   0.77869   0.12311  Uiso   1.00
C3919  C     0.93211   0.03221   0.78420   0.12311  Uiso   1.00
N3920  N     0.88891   0.03177   0.77682   0.12311  Uiso   1.00
N3921  N     0.88776   0.05338   0.98314   0.12311  Uiso   1.00
H3922  H     0.79138   0.18218   0.75541   0.12311  Uiso   0.00
C3923  C     0.77702   0.15674   0.79052   0.12311  Uiso   1.00
C3924  C     0.77517   0.19171   0.96983   0.12311  Uiso   1.00
C3925  C     0.78398   0.17833   0.75529   0.12311  Uiso   1.00
C3926  C     0.79878   0.18604   0.75552   0.12311  Uiso   1.00
C3927  C     0.82082   0.15868   0.77869   0.12311  Uiso   1.00
C3928  C     0.80711   0.15721   0.78420   0.12311  Uiso   1.00
N3929  N     0.76391   0.15677   0.77682   0.12311  Uiso   1.00
N3930  N     0.76276   0.17838   0.98314   0.12311  Uiso   1.00
H3931  H     0.83362   0.05718   0.86959   0.12311  Uiso   0.00
C3932  C     0.84798   0.03174   0.83448   0.12311  Uiso   1.00
C3933  C     0.84983   0.06671   0.90517   0.12311  Uiso   1.00
C3934  C     0.84102   0.05333   0.86971   0.12311  Uiso   1.00
C3935  C     0.82622   0.06104   0.86948   0.12311  Uiso   1.00
C3936  C     0.80418   0.03368   0.84631   0.12311  Uiso   1.00
C3937  C     0.81789   0.03221   0.84080   0.12311  Uiso   1.00
N3938  N     0.86109   0.03177   0.84818   0.12311  Uiso   1.00
N3939  N     0.86224   0.05338   0.89186   0.12311  Uiso   1.00
H3940  H     0.95862   0.18218   0.86959   0.12311  Uiso   0.00
C3941  C     0.97298   0.15674   0.83448   0.12311  Uiso   1.00
C3942  C     0.97483   0.19171   0.90517   0.12311  Uiso   1.00
C3943  C     0.96602   0.17833   0.86971   0.12311  Uiso   1.00
C3944  C     0.95122   0.18604   0.86948   0.12311  Uiso   1.00
C3945  C     0.92918   0.15868   0.84631   0.12311  Uiso   1.00
C3946  C     0.94289   0.15721   0.84080   0.12311  Uiso   1.00
N3947  N     0.98609   0.15677   0.84818   0.12311  Uiso   1.00
N3948  N     0.98724   0.17838   0.89186   0.12311  Uiso   1.00
Fe3949 Fe    0.75000   0.11461   0.81250   0.12311  Uiso   1.00
Fe3950 Fe    0.87500   0.23961   0.81250   0.12311  Uiso   1.00
Fe3951 Fe    0.75000   0.13539   0.93750   0.12311  Uiso   1.00
Fe3952 Fe    0.87500   0.01039   0.93750   0.12311  Uiso   1.00
H3953  H     0.08362   0.44282   0.99459   0.12311  Uiso   0.00
C3954  C     0.09798   0.46826   0.95948   0.12311  Uiso   1.00
C3955  C     0.09983   0.43329   0.78017   0.12311  Uiso   1.00
C3956  C     0.09102   0.44667   0.99471   0.12311  Uiso   1.00
C3957  C     0.07622   0.43896   0.99448   0.12311  Uiso   1.00
C3958  C     0.05418   0.46632   0.97131   0.12311  Uiso   1.00
C3959  C     0.06789   0.46779   0.96580   0.12311  Uiso   1.00
N3960  N     0.11109   0.46823   0.97318   0.12311  Uiso   1.00
N3961  N     0.11224   0.44662   0.76686   0.12311  Uiso   1.00
H3962  H     0.20862   0.31782   0.99459   0.12311  Uiso   0.00
C3963  C     0.22298   0.34326   0.95948   0.12311  Uiso   1.00
C3964  C     0.22483   0.30829   0.78017   0.12311  Uiso   1.00
C3965  C     0.21602   0.32167   0.99471   0.12311  Uiso   1.00
C3966  C     0.20122   0.31396   0.99448   0.12311  Uiso   1.00
C3967  C     0.17918   0.34132   0.97131   0.12311  Uiso   1.00
C3968  C     0.19289   0.34279   0.96580   0.12311  Uiso   1.00
N3969  N     0.23609   0.34323   0.97318   0.12311  Uiso   1.00
N3970  N     0.23724   0.32162   0.76686   0.12311  Uiso   1.00
H3971  H     0.16638   0.44282   0.88041   0.12311  Uiso   0.00
C3972  C     0.15202   0.46826   0.91552   0.12311  Uiso   1.00
C3973  C     0.15017   0.43329   0.84483   0.12311  Uiso   1.00
C3974  C     0.15898   0.44667   0.88029   0.12311  Uiso   1.00
C3975  C     0.17378   0.43896   0.88052   0.12311  Uiso   1.00
C3976  C     0.19582   0.46632   0.90369   0.12311  Uiso   1.00
C3977  C     0.18211   0.46779   0.90920   0.12311  Uiso   1.00
N3978  N     0.13891   0.46823   0.90182   0.12311  Uiso   1.00
N3979  N     0.13776   0.44662   0.85814   0.12311  Uiso   1.00
H3980  H     0.04138   0.31782   0.88041   0.12311  Uiso   0.00
C3981  C     0.02702   0.34326   0.91552   0.12311  Uiso   1.00
C3982  C     0.02517   0.30829   0.84483   0.12311  Uiso   1.00
C3983  C     0.03398   0.32167   0.88029   0.12311  Uiso   1.00
C3984  C     0.04878   0.31396   0.88052   0.12311  Uiso   1.00
C3985  C     0.07082   0.34132   0.90369   0.12311  Uiso   1.00
C3986  C     0.05711   0.34279   0.90920   0.12311  Uiso   1.00
N3987  N     0.01391   0.34323   0.90182   0.12311  Uiso   1.00
N3988  N     0.01276   0.32162   0.85814   0.12311  Uiso   1.00
H3989  H     0.16638   0.30718   0.75541   0.12311  Uiso   0.00
C3990  C     0.15202   0.28174   0.79052   0.12311  Uiso   1.00
C3991  C     0.15017   0.31671   0.96983   0.12311  Uiso   1.00
C3992  C     0.15898   0.30333   0.75529   0.12311  Uiso   1.00
C3993  C     0.17378   0.31104   0.75552   0.12311  Uiso   1.00
C3994  C     0.19582   0.28368   0.77869   0.12311  Uiso   1.00
C3995  C     0.18211   0.28221   0.78420   0.12311  Uiso   1.00
N3996  N     0.13891   0.28177   0.77682   0.12311  Uiso   1.00
N3997  N     0.13776   0.30338   0.98314   0.12311  Uiso   1.00
H3998  H     0.04138   0.43218   0.75541   0.12311  Uiso   0.00
C3999  C     0.02702   0.40674   0.79052   0.12311  Uiso   1.00
C4000  C     0.02517   0.44171   0.96983   0.12311  Uiso   1.00
C4001  C     0.03398   0.42833   0.75529   0.12311  Uiso   1.00
C4002  C     0.04878   0.43604   0.75552   0.12311  Uiso   1.00
C4003  C     0.07082   0.40868   0.77869   0.12311  Uiso   1.00
C4004  C     0.05711   0.40721   0.78420   0.12311  Uiso   1.00
N4005  N     0.01391   0.40677   0.77682   0.12311  Uiso   1.00
N4006  N     0.01276   0.42838   0.98314   0.12311  Uiso   1.00
H4007  H     0.08362   0.30718   0.86959   0.12311  Uiso   0.00
C4008  C     0.09798   0.28174   0.83448   0.12311  Uiso   1.00
C4009  C     0.09983   0.31671   0.90517   0.12311  Uiso   1.00
C4010  C     0.09102   0.30333   0.86971   0.12311  Uiso   1.00
C4011  C     0.07622   0.31104   0.86948   0.12311  Uiso   1.00
C4012  C     0.05418   0.28368   0.84631   0.12311  Uiso   1.00
C4013  C     0.06789   0.28221   0.84080   0.12311  Uiso   1.00
N4014  N     0.11109   0.28177   0.84818   0.12311  Uiso   1.00
N4015  N     0.11224   0.30338   0.89186   0.12311  Uiso   1.00
H4016  H     0.20862   0.43218   0.86959   0.12311  Uiso   0.00
C4017  C     0.22298   0.40674   0.83448   0.12311  Uiso   1.00
C4018  C     0.22483   0.44171   0.90517   0.12311  Uiso   1.00
C4019  C     0.21602   0.42833   0.86971   0.12311  Uiso   1.00
C4020  C     0.20122   0.43604   0.86948   0.12311  Uiso   1.00
C4021  C     0.17918   0.40868   0.84631   0.12311  Uiso   1.00
C4022  C     0.19289   0.40721   0.84080   0.12311  Uiso   1.00
N4023  N     0.23609   0.40677   0.84818   0.12311  Uiso   1.00
N4024  N     0.23724   0.42838   0.89186   0.12311  Uiso   1.00
Fe4025 Fe    0.00000   0.36461   0.81250   0.12311  Uiso   1.00
Fe4026 Fe    0.12500   0.48961   0.81250   0.12311  Uiso   1.00
Fe4027 Fe    0.00000   0.38539   0.93750   0.12311  Uiso   1.00
Fe4028 Fe    0.12500   0.26039   0.93750   0.12311  Uiso   1.00
H4029  H     0.33362   0.44282   0.99459   0.12311  Uiso   0.00
C4030  C     0.34798   0.46826   0.95948   0.12311  Uiso   1.00
C4031  C     0.34983   0.43329   0.78017   0.12311  Uiso   1.00
C4032  C     0.34102   0.44667   0.99471   0.12311  Uiso   1.00
C4033  C     0.32622   0.43896   0.99448   0.12311  Uiso   1.00
C4034  C     0.30418   0.46632   0.97131   0.12311  Uiso   1.00
C4035  C     0.31789   0.46779   0.96580   0.12311  Uiso   1.00
N4036  N     0.36109   0.46823   0.97318   0.12311  Uiso   1.00
N4037  N     0.36224   0.44662   0.76686   0.12311  Uiso   1.00
H4038  H     0.45862   0.31782   0.99459   0.12311  Uiso   0.00
C4039  C     0.47298   0.34326   0.95948   0.12311  Uiso   1.00
C4040  C     0.47483   0.30829   0.78017   0.12311  Uiso   1.00
C4041  C     0.46602   0.32167   0.99471   0.12311  Uiso   1.00
C4042  C     0.45122   0.31396   0.99448   0.12311  Uiso   1.00
C4043  C     0.42918   0.34132   0.97131   0.12311  Uiso   1.00
C4044  C     0.44289   0.34279   0.96580   0.12311  Uiso   1.00
N4045  N     0.48609   0.34323   0.97318   0.12311  Uiso   1.00
N4046  N     0.48724   0.32162   0.76686   0.12311  Uiso   1.00
H4047  H     0.41638   0.44282   0.88041   0.12311  Uiso   0.00
C4048  C     0.40202   0.46826   0.91552   0.12311  Uiso   1.00
C4049  C     0.40017   0.43329   0.84483   0.12311  Uiso   1.00
C4050  C     0.40898   0.44667   0.88029   0.12311  Uiso   1.00
C4051  C     0.42378   0.43896   0.88052   0.12311  Uiso   1.00
C4052  C     0.44582   0.46632   0.90369   0.12311  Uiso   1.00
C4053  C     0.43211   0.46779   0.90920   0.12311  Uiso   1.00
N4054  N     0.38891   0.46823   0.90182   0.12311  Uiso   1.00
N4055  N     0.38776   0.44662   0.85814   0.12311  Uiso   1.00
H4056  H     0.29138   0.31782   0.88041   0.12311  Uiso   0.00
C4057  C     0.27702   0.34326   0.91552   0.12311  Uiso   1.00
C4058  C     0.27517   0.30829   0.84483   0.12311  Uiso   1.00
C4059  C     0.28398   0.32167   0.88029   0.12311  Uiso   1.00
C4060  C     0.29878   0.31396   0.88052   0.12311  Uiso   1.00
C4061  C     0.32082   0.34132   0.90369   0.12311  Uiso   1.00
C4062  C     0.30711   0.34279   0.90920   0.12311  Uiso   1.00
N4063  N     0.26391   0.34323   0.90182   0.12311  Uiso   1.00
N4064  N     0.26276   0.32162   0.85814   0.12311  Uiso   1.00
H4065  H     0.41638   0.30718   0.75541   0.12311  Uiso   0.00
C4066  C     0.40202   0.28174   0.79052   0.12311  Uiso   1.00
C4067  C     0.40017   0.31671   0.96983   0.12311  Uiso   1.00
C4068  C     0.40898   0.30333   0.75529   0.12311  Uiso   1.00
C4069  C     0.42378   0.31104   0.75552   0.12311  Uiso   1.00
C4070  C     0.44582   0.28368   0.77869   0.12311  Uiso   1.00
C4071  C     0.43211   0.28221   0.78420   0.12311  Uiso   1.00
N4072  N     0.38891   0.28177   0.77682   0.12311  Uiso   1.00
N4073  N     0.38776   0.30338   0.98314   0.12311  Uiso   1.00
H4074  H     0.29138   0.43218   0.75541   0.12311  Uiso   0.00
C4075  C     0.27702   0.40674   0.79052   0.12311  Uiso   1.00
C4076  C     0.27517   0.44171   0.96983   0.12311  Uiso   1.00
C4077  C     0.28398   0.42833   0.75529   0.12311  Uiso   1.00
C4078  C     0.29878   0.43604   0.75552   0.12311  Uiso   1.00
C4079  C     0.32082   0.40868   0.77869   0.12311  Uiso   1.00
C4080  C     0.30711   0.40721   0.78420   0.12311  Uiso   1.00
N4081  N     0.26391   0.40677   0.77682   0.12311  Uiso   1.00
N4082  N     0.26276   0.42838   0.98314   0.12311  Uiso   1.00
H4083  H     0.33362   0.30718   0.86959   0.12311  Uiso   0.00
C4084  C     0.34798   0.28174   0.83448   0.12311  Uiso   1.00
C4085  C     0.34983   0.31671   0.90517   0.12311  Uiso   1.00
C4086  C     0.34102   0.30333   0.86971   0.12311  Uiso   1.00
C4087  C     0.32622   0.31104   0.86948   0.12311  Uiso   1.00
C4088  C     0.30418   0.28368   0.84631   0.12311  Uiso   1.00
C4089  C     0.31789   0.28221   0.84080   0.12311  Uiso   1.00
N4090  N     0.36109   0.28177   0.84818   0.12311  Uiso   1.00
N4091  N     0.36224   0.30338   0.89186   0.12311  Uiso   1.00
H4092  H     0.45862   0.43218   0.86959   0.12311  Uiso   0.00
C4093  C     0.47298   0.40674   0.83448   0.12311  Uiso   1.00
C4094  C     0.47483   0.44171   0.90517   0.12311  Uiso   1.00
C4095  C     0.46602   0.42833   0.86971   0.12311  Uiso   1.00
C4096  C     0.45122   0.43604   0.86948   0.12311  Uiso   1.00
C4097  C     0.42918   0.40868   0.84631   0.12311  Uiso   1.00
C4098  C     0.44289   0.40721   0.84080   0.12311  Uiso   1.00
N4099  N     0.48609   0.40677   0.84818   0.12311  Uiso   1.00
N4100  N     0.48724   0.42838   0.89186   0.12311  Uiso   1.00
Fe4101 Fe    0.25000   0.36461   0.81250   0.12311  Uiso   1.00
Fe4102 Fe    0.37500   0.48961   0.81250   0.12311  Uiso   1.00
Fe4103 Fe    0.25000   0.38539   0.93750   0.12311  Uiso   1.00
Fe4104 Fe    0.37500   0.26039   0.93750   0.12311  Uiso   1.00
H4105  H     0.58362   0.44282   0.99459   0.12311  Uiso   0.00
C4106  C     0.59798   0.46826   0.95948   0.12311  Uiso   1.00
C4107  C     0.59983   0.43329   0.78017   0.12311  Uiso   1.00
C4108  C     0.59102   0.44667   0.99471   0.12311  Uiso   1.00
C4109  C     0.57622   0.43896   0.99448   0.12311  Uiso   1.00
C4110  C     0.55418   0.46632   0.97131   0.12311  Uiso   1.00
C4111  C     0.56789   0.46779   0.96580   0.12311  Uiso   1.00
N4112  N     0.61109   0.46823   0.97318   0.12311  Uiso   1.00
N4113  N     0.61224   0.44662   0.76686   0.12311  Uiso   1.00
H4114  H     0.70862   0.31782   0.99459   0.12311  Uiso   0.00
C4115  C     0.72298   0.34326   0.95948   0.12311  Uiso   1.00
C4116  C     0.72483   0.30829   0.78017   0.12311  Uiso   1.00
C4117  C     0.71602   0.32167   0.99471   0.12311  Uiso   1.00
C4118  C     0.70122   0.31396   0.99448   0.12311  Uiso   1.00
C4119  C     0.67918   0.34132   0.97131   0.12311  Uiso   1.00
C4120  C     0.69289   0.34279   0.96580   0.12311  Uiso   1.00
N4121  N     0.73609   0.34323   0.97318   0.12311  Uiso   1.00
N4122  N     0.73724   0.32162   0.76686   0.12311  Uiso   1.00
H4123  H     0.66638   0.44282   0.88041   0.12311  Uiso   0.00
C4124  C     0.65202   0.46826   0.91552   0.12311  Uiso   1.00
C4125  C     0.65017   0.43329   0.84483   0.12311  Uiso   1.00
C4126  C     0.65898   0.44667   0.88029   0.12311  Uiso   1.00
C4127  C     0.67378   0.43896   0.88052   0.12311  Uiso   1.00
C4128  C     0.69582   0.46632   0.90369   0.12311  Uiso   1.00
C4129  C     0.68211   0.46779   0.90920   0.12311  Uiso   1.00
N4130  N     0.63891   0.46823   0.90182   0.12311  Uiso   1.00
N4131  N     0.63776   0.44662   0.85814   0.12311  Uiso   1.00
H4132  H     0.54138   0.31782   0.88041   0.12311  Uiso   0.00
C4133  C     0.52702   0.34326   0.91552   0.12311  Uiso   1.00
C4134  C     0.52517   0.30829   0.84483   0.12311  Uiso   1.00
C4135  C     0.53398   0.32167   0.88029   0.12311  Uiso   1.00
C4136  C     0.54878   0.31396   0.88052   0.12311  Uiso   1.00
C4137  C     0.57082   0.34132   0.90369   0.12311  Uiso   1.00
C4138  C     0.55711   0.34279   0.90920   0.12311  Uiso   1.00
N4139  N     0.51391   0.34323   0.90182   0.12311  Uiso   1.00
N4140  N     0.51276   0.32162   0.85814   0.12311  Uiso   1.00
H4141  H     0.66638   0.30718   0.75541   0.12311  Uiso   0.00
C4142  C     0.65202   0.28174   0.79052   0.12311  Uiso   1.00
C4143  C     0.65017   0.31671   0.96983   0.12311  Uiso   1.00
C4144  C     0.65898   0.30333   0.75529   0.12311  Uiso   1.00
C4145  C     0.67378   0.31104   0.75552   0.12311  Uiso   1.00
C4146  C     0.69582   0.28368   0.77869   0.12311  Uiso   1.00
C4147  C     0.68211   0.28221   0.78420   0.12311  Uiso   1.00
N4148  N     0.63891   0.28177   0.77682   0.12311  Uiso   1.00
N4149  N     0.63776   0.30338   0.98314   0.12311  Uiso   1.00
H4150  H     0.54138   0.43218   0.75541   0.12311  Uiso   0.00
C4151  C     0.52702   0.40674   0.79052   0.12311  Uiso   1.00
C4152  C     0.52517   0.44171   0.96983   0.12311  Uiso   1.00
C4153  C     0.53398   0.42833   0.75529   0.12311  Uiso   1.00
C4154  C     0.54878   0.43604   0.75552   0.12311  Uiso   1.00
C4155  C     0.57082   0.40868   0.77869   0.12311  Uiso   1.00
C4156  C     0.55711   0.40721   0.78420   0.12311  Uiso   1.00
N4157  N     0.51391   0.40677   0.77682   0.12311  Uiso   1.00
N4158  N     0.51276   0.42838   0.98314   0.12311  Uiso   1.00
H4159  H     0.58362   0.30718   0.86959   0.12311  Uiso   0.00
C4160  C     0.59798   0.28174   0.83448   0.12311  Uiso   1.00
C4161  C     0.59983   0.31671   0.90517   0.12311  Uiso   1.00
C4162  C     0.59102   0.30333   0.86971   0.12311  Uiso   1.00
C4163  C     0.57622   0.31104   0.86948   0.12311  Uiso   1.00
C4164  C     0.55418   0.28368   0.84631   0.12311  Uiso   1.00
C4165  C     0.56789   0.28221   0.84080   0.12311  Uiso   1.00
N4166  N     0.61109   0.28177   0.84818   0.12311  Uiso   1.00
N4167  N     0.61224   0.30338   0.89186   0.12311  Uiso   1.00
H4168  H     0.70862   0.43218   0.86959   0.12311  Uiso   0.00
C4169  C     0.72298   0.40674   0.83448   0.12311  Uiso   1.00
C4170  C     0.72483   0.44171   0.90517   0.12311  Uiso   1.00
C4171  C     0.71602   0.42833   0.86971   0.12311  Uiso   1.00
C4172  C     0.70122   0.43604   0.86948   0.12311  Uiso   1.00
C4173  C     0.67918   0.40868   0.84631   0.12311  Uiso   1.00
C4174  C     0.69289   0.40721   0.84080   0.12311  Uiso   1.00
N4175  N     0.73609   0.40677   0.84818   0.12311  Uiso   1.00
N4176  N     0.73724   0.42838   0.89186   0.12311  Uiso   1.00
Fe4177 Fe    0.50000   0.36461   0.81250   0.12311  Uiso   1.00
Fe4178 Fe    0.62500   0.48961   0.81250   0.12311  Uiso   1.00
Fe4179 Fe    0.50000   0.38539   0.93750   0.12311  Uiso   1.00
Fe4180 Fe    0.62500   0.26039   0.93750   0.12311  Uiso   1.00
H4181  H     0.83362   0.44282   0.99459   0.12311  Uiso   0.00
C4182  C     0.84798   0.46826   0.95948   0.12311  Uiso   1.00
C4183  C     0.84983   0.43329   0.78017   0.12311  Uiso   1.00
C4184  C     0.84102   0.44667   0.99471   0.12311  Uiso   1.00
C4185  C     0.82622   0.43896   0.99448   0.12311  Uiso   1.00
C4186  C     0.80418   0.46632   0.97131   0.12311  Uiso   1.00
C4187  C     0.81789   0.46779   0.96580   0.12311  Uiso   1.00
N4188  N     0.86109   0.46823   0.97318   0.12311  Uiso   1.00
N4189  N     0.86224   0.44662   0.76686   0.12311  Uiso   1.00
H4190  H     0.95862   0.31782   0.99459   0.12311  Uiso   0.00
C4191  C     0.97298   0.34326   0.95948   0.12311  Uiso   1.00
C4192  C     0.97483   0.30829   0.78017   0.12311  Uiso   1.00
C4193  C     0.96602   0.32167   0.99471   0.12311  Uiso   1.00
C4194  C     0.95122   0.31396   0.99448   0.12311  Uiso   1.00
C4195  C     0.92918   0.34132   0.97131   0.12311  Uiso   1.00
C4196  C     0.94289   0.34279   0.96580   0.12311  Uiso   1.00
N4197  N     0.98609   0.34323   0.97318   0.12311  Uiso   1.00
N4198  N     0.98724   0.32162   0.76686   0.12311  Uiso   1.00
H4199  H     0.91638   0.44282   0.88041   0.12311  Uiso   0.00
C4200  C     0.90202   0.46826   0.91552   0.12311  Uiso   1.00
C4201  C     0.90017   0.43329   0.84483   0.12311  Uiso   1.00
C4202  C     0.90898   0.44667   0.88029   0.12311  Uiso   1.00
C4203  C     0.92378   0.43896   0.88052   0.12311  Uiso   1.00
C4204  C     0.94582   0.46632   0.90369   0.12311  Uiso   1.00
C4205  C     0.93211   0.46779   0.90920   0.12311  Uiso   1.00
N4206  N     0.88891   0.46823   0.90182   0.12311  Uiso   1.00
N4207  N     0.88776   0.44662   0.85814   0.12311  Uiso   1.00
H4208  H     0.79138   0.31782   0.88041   0.12311  Uiso   0.00
C4209  C     0.77702   0.34326   0.91552   0.12311  Uiso   1.00
C4210  C     0.77517   0.30829   0.84483   0.12311  Uiso   1.00
C4211  C     0.78398   0.32167   0.88029   0.12311  Uiso   1.00
C4212  C     0.79878   0.31396   0.88052   0.12311  Uiso   1.00
C4213  C     0.82082   0.34132   0.90369   0.12311  Uiso   1.00
C4214  C     0.80711   0.34279   0.90920   0.12311  Uiso   1.00
N4215  N     0.76391   0.34323   0.90182   0.12311  Uiso   1.00
N4216  N     0.76276   0.32162   0.85814   0.12311  Uiso   1.00
H4217  H     0.91638   0.30718   0.75541   0.12311  Uiso   0.00
C4218  C     0.90202   0.28174   0.79052   0.12311  Uiso   1.00
C4219  C     0.90017   0.31671   0.96983   0.12311  Uiso   1.00
C4220  C     0.90898   0.30333   0.75529   0.12311  Uiso   1.00
C4221  C     0.92378   0.31104   0.75552   0.12311  Uiso   1.00
C4222  C     0.94582   0.28368   0.77869   0.12311  Uiso   1.00
C4223  C     0.93211   0.28221   0.78420   0.12311  Uiso   1.00
N4224  N     0.88891   0.28177   0.77682   0.12311  Uiso   1.00
N4225  N     0.88776   0.30338   0.98314   0.12311  Uiso   1.00
H4226  H     0.79138   0.43218   0.75541   0.12311  Uiso   0.00
C4227  C     0.77702   0.40674   0.79052   0.12311  Uiso   1.00
C4228  C     0.77517   0.44171   0.96983   0.12311  Uiso   1.00
C4229  C     0.78398   0.42833   0.75529   0.12311  Uiso   1.00
C4230  C     0.79878   0.43604   0.75552   0.12311  Uiso   1.00
C4231  C     0.82082   0.40868   0.77869   0.12311  Uiso   1.00
C4232  C     0.80711   0.40721   0.78420   0.12311  Uiso   1.00
N4233  N     0.76391   0.40677   0.77682   0.12311  Uiso   1.00
N4234  N     0.76276   0.42838   0.98314   0.12311  Uiso   1.00
H4235  H     0.83362   0.30718   0.86959   0.12311  Uiso   0.00
C4236  C     0.84798   0.28174   0.83448   0.12311  Uiso   1.00
C4237  C     0.84983   0.31671   0.90517   0.12311  Uiso   1.00
C4238  C     0.84102   0.30333   0.86971   0.12311  Uiso   1.00
C4239  C     0.82622   0.31104   0.86948   0.12311  Uiso   1.00
C4240  C     0.80418   0.28368   0.84631   0.12311  Uiso   1.00
C4241  C     0.81789   0.28221   0.84080   0.12311  Uiso   1.00
N4242  N     0.86109   0.28177   0.84818   0.12311  Uiso   1.00
N4243  N     0.86224   0.30338   0.89186   0.12311  Uiso   1.00
H4244  H     0.95862   0.43218   0.86959   0.12311  Uiso   0.00
C4245  C     0.97298   0.40674   0.83448   0.12311  Uiso   1.00
C4246  C     0.97483   0.44171   0.90517   0.12311  Uiso   1.00
C4247  C     0.96602   0.42833   0.86971   0.12311  Uiso   1.00
C4248  C     0.95122   0.43604   0.86948   0.12311  Uiso   1.00
C4249  C     0.92918   0.40868   0.84631   0.12311  Uiso   1.00
C4250  C     0.94289   0.40721   0.84080   0.12311  Uiso   1.00
N4251  N     0.98609   0.40677   0.84818   0.12311  Uiso   1.00
N4252  N     0.98724   0.42838   0.89186   0.12311  Uiso   1.00
Fe4253 Fe    0.75000   0.36461   0.81250   0.12311  Uiso   1.00
Fe4254 Fe    0.87500   0.48961   0.81250   0.12311  Uiso   1.00
Fe4255 Fe    0.75000   0.38539   0.93750   0.12311  Uiso   1.00
Fe4256 Fe    0.87500   0.26039   0.93750   0.12311  Uiso   1.00
H4257  H     0.08362   0.69282   0.99459   0.12311  Uiso   0.00
C4258  C     0.09798   0.71826   0.95948   0.12311  Uiso   1.00
C4259  C     0.09983   0.68329   0.78017   0.12311  Uiso   1.00
C4260  C     0.09102   0.69667   0.99471   0.12311  Uiso   1.00
C4261  C     0.07622   0.68896   0.99448   0.12311  Uiso   1.00
C4262  C     0.05418   0.71632   0.97131   0.12311  Uiso   1.00
C4263  C     0.06789   0.71779   0.96580   0.12311  Uiso   1.00
N4264  N     0.11109   0.71823   0.97318   0.12311  Uiso   1.00
N4265  N     0.11224   0.69662   0.76686   0.12311  Uiso   1.00
H4266  H     0.20862   0.56782   0.99459   0.12311  Uiso   0.00
C4267  C     0.22298   0.59326   0.95948   0.12311  Uiso   1.00
C4268  C     0.22483   0.55829   0.78017   0.12311  Uiso   1.00
C4269  C     0.21602   0.57167   0.99471   0.12311  Uiso   1.00
C4270  C     0.20122   0.56396   0.99448   0.12311  Uiso   1.00
C4271  C     0.17918   0.59132   0.97131   0.12311  Uiso   1.00
C4272  C     0.19289   0.59279   0.96580   0.12311  Uiso   1.00
N4273  N     0.23609   0.59323   0.97318   0.12311  Uiso   1.00
N4274  N     0.23724   0.57162   0.76686   0.12311  Uiso   1.00
H4275  H     0.16638   0.69282   0.88041   0.12311  Uiso   0.00
C4276  C     0.15202   0.71826   0.91552   0.12311  Uiso   1.00
C4277  C     0.15017   0.68329   0.84483   0.12311  Uiso   1.00
C4278  C     0.15898   0.69667   0.88029   0.12311  Uiso   1.00
C4279  C     0.17378   0.68896   0.88052   0.12311  Uiso   1.00
C4280  C     0.19582   0.71632   0.90369   0.12311  Uiso   1.00
C4281  C     0.18211   0.71779   0.90920   0.12311  Uiso   1.00
N4282  N     0.13891   0.71823   0.90182   0.12311  Uiso   1.00
N4283  N     0.13776   0.69662   0.85814   0.12311  Uiso   1.00
H4284  H     0.04138   0.56782   0.88041   0.12311  Uiso   0.00
C4285  C     0.02702   0.59326   0.91552   0.12311  Uiso   1.00
C4286  C     0.02517   0.55829   0.84483   0.12311  Uiso   1.00
C4287  C     0.03398   0.57167   0.88029   0.12311  Uiso   1.00
C4288  C     0.04878   0.56396   0.88052   0.12311  Uiso   1.00
C4289  C     0.07082   0.59132   0.90369   0.12311  Uiso   1.00
C4290  C     0.05711   0.59279   0.90920   0.12311  Uiso   1.00
N4291  N     0.01391   0.59323   0.90182   0.12311  Uiso   1.00
N4292  N     0.01276   0.57162   0.85814   0.12311  Uiso   1.00
H4293  H     0.16638   0.55718   0.75541   0.12311  Uiso   0.00
C4294  C     0.15202   0.53174   0.79052   0.12311  Uiso   1.00
C4295  C     0.15017   0.56671   0.96983   0.12311  Uiso   1.00
C4296  C     0.15898   0.55333   0.75529   0.12311  Uiso   1.00
C4297  C     0.17378   0.56104   0.75552   0.12311  Uiso   1.00
C4298  C     0.19582   0.53368   0.77869   0.12311  Uiso   1.00
C4299  C     0.18211   0.53221   0.78420   0.12311  Uiso   1.00
N4300  N     0.13891   0.53177   0.77682   0.12311  Uiso   1.00
N4301  N     0.13776   0.55338   0.98314   0.12311  Uiso   1.00
H4302  H     0.04138   0.68218   0.75541   0.12311  Uiso   0.00
C4303  C     0.02702   0.65674   0.79052   0.12311  Uiso   1.00
C4304  C     0.02517   0.69171   0.96983   0.12311  Uiso   1.00
C4305  C     0.03398   0.67833   0.75529   0.12311  Uiso   1.00
C4306  C     0.04878   0.68604   0.75552   0.12311  Uiso   1.00
C4307  C     0.07082   0.65868   0.77869   0.12311  Uiso   1.00
C4308  C     0.05711   0.65721   0.78420   0.12311  Uiso   1.00
N4309  N     0.01391   0.65677   0.77682   0.12311  Uiso   1.00
N4310  N     0.01276   0.67838   0.98314   0.12311  Uiso   1.00
H4311  H     0.08362   0.55718   0.86959   0.12311  Uiso   0.00
C4312  C     0.09798   0.53174   0.83448   0.12311  Uiso   1.00
C4313  C     0.09983   0.56671   0.90517   0.12311  Uiso   1.00
C4314  C     0.09102   0.55333   0.86971   0.12311  Uiso   1.00
C4315  C     0.07622   0.56104   0.86948   0.12311  Uiso   1.00
C4316  C     0.05418   0.53368   0.84631   0.12311  Uiso   1.00
C4317  C     0.06789   0.53221   0.84080   0.12311  Uiso   1.00
N4318  N     0.11109   0.53177   0.84818   0.12311  Uiso   1.00
N4319  N     0.11224   0.55338   0.89186   0.12311  Uiso   1.00
H4320  H     0.20862   0.68218   0.86959   0.12311  Uiso   0.00
C4321  C     0.22298   0.65674   0.83448   0.12311  Uiso   1.00
C4322  C     0.22483   0.69171   0.90517   0.12311  Uiso   1.00
C4323  C     0.21602   0.67833   0.86971   0.12311  Uiso   1.00
C4324  C     0.20122   0.68604   0.86948   0.12311  Uiso   1.00
C4325  C     0.17918   0.65868   0.84631   0.12311  Uiso   1.00
C4326  C     0.19289   0.65721   0.84080   0.12311  Uiso   1.00
N4327  N     0.23609   0.65677   0.84818   0.12311  Uiso   1.00
N4328  N     0.23724   0.67838   0.89186   0.12311  Uiso   1.00
Fe4329 Fe    0.00000   0.61461   0.81250   0.12311  Uiso   1.00
Fe4330 Fe    0.12500   0.73961   0.81250   0.12311  Uiso   1.00
Fe4331 Fe    0.00000   0.63539   0.93750   0.12311  Uiso   1.00
Fe4332 Fe    0.12500   0.51039   0.93750   0.12311  Uiso   1.00
H4333  H     0.33362   0.69282   0.99459   0.12311  Uiso   0.00
C4334  C     0.34798   0.71826   0.95948   0.12311  Uiso   1.00
C4335  C     0.34983   0.68329   0.78017   0.12311  Uiso   1.00
C4336  C     0.34102   0.69667   0.99471   0.12311  Uiso   1.00
C4337  C     0.32622   0.68896   0.99448   0.12311  Uiso   1.00
C4338  C     0.30418   0.71632   0.97131   0.12311  Uiso   1.00
C4339  C     0.31789   0.71779   0.96580   0.12311  Uiso   1.00
N4340  N     0.36109   0.71823   0.97318   0.12311  Uiso   1.00
N4341  N     0.36224   0.69662   0.76686   0.12311  Uiso   1.00
H4342  H     0.45862   0.56782   0.99459   0.12311  Uiso   0.00
C4343  C     0.47298   0.59326   0.95948   0.12311  Uiso   1.00
C4344  C     0.47483   0.55829   0.78017   0.12311  Uiso   1.00
C4345  C     0.46602   0.57167   0.99471   0.12311  Uiso   1.00
C4346  C     0.45122   0.56396   0.99448   0.12311  Uiso   1.00
C4347  C     0.42918   0.59132   0.97131   0.12311  Uiso   1.00
C4348  C     0.44289   0.59279   0.96580   0.12311  Uiso   1.00
N4349  N     0.48609   0.59323   0.97318   0.12311  Uiso   1.00
N4350  N     0.48724   0.57162   0.76686   0.12311  Uiso   1.00
H4351  H     0.41638   0.69282   0.88041   0.12311  Uiso   0.00
C4352  C     0.40202   0.71826   0.91552   0.12311  Uiso   1.00
C4353  C     0.40017   0.68329   0.84483   0.12311  Uiso   1.00
C4354  C     0.40898   0.69667   0.88029   0.12311  Uiso   1.00
C4355  C     0.42378   0.68896   0.88052   0.12311  Uiso   1.00
C4356  C     0.44582   0.71632   0.90369   0.12311  Uiso   1.00
C4357  C     0.43211   0.71779   0.90920   0.12311  Uiso   1.00
N4358  N     0.38891   0.71823   0.90182   0.12311  Uiso   1.00
N4359  N     0.38776   0.69662   0.85814   0.12311  Uiso   1.00
H4360  H     0.29138   0.56782   0.88041   0.12311  Uiso   0.00
C4361  C     0.27702   0.59326   0.91552   0.12311  Uiso   1.00
C4362  C     0.27517   0.55829   0.84483   0.12311  Uiso   1.00
C4363  C     0.28398   0.57167   0.88029   0.12311  Uiso   1.00
C4364  C     0.29878   0.56396   0.88052   0.12311  Uiso   1.00
C4365  C     0.32082   0.59132   0.90369   0.12311  Uiso   1.00
C4366  C     0.30711   0.59279   0.90920   0.12311  Uiso   1.00
N4367  N     0.26391   0.59323   0.90182   0.12311  Uiso   1.00
N4368  N     0.26276   0.57162   0.85814   0.12311  Uiso   1.00
H4369  H     0.41638   0.55718   0.75541   0.12311  Uiso   0.00
C4370  C     0.40202   0.53174   0.79052   0.12311  Uiso   1.00
C4371  C     0.40017   0.56671   0.96983   0.12311  Uiso   1.00
C4372  C     0.40898   0.55333   0.75529   0.12311  Uiso   1.00
C4373  C     0.42378   0.56104   0.75552   0.12311  Uiso   1.00
C4374  C     0.44582   0.53368   0.77869   0.12311  Uiso   1.00
C4375  C     0.43211   0.53221   0.78420   0.12311  Uiso   1.00
N4376  N     0.38891   0.53177   0.77682   0.12311  Uiso   1.00
N4377  N     0.38776   0.55338   0.98314   0.12311  Uiso   1.00
H4378  H     0.29138   0.68218   0.75541   0.12311  Uiso   0.00
C4379  C     0.27702   0.65674   0.79052   0.12311  Uiso   1.00
C4380  C     0.27517   0.69171   0.96983   0.12311  Uiso   1.00
C4381  C     0.28398   0.67833   0.75529   0.12311  Uiso   1.00
C4382  C     0.29878   0.68604   0.75552   0.12311  Uiso   1.00
C4383  C     0.32082   0.65868   0.77869   0.12311  Uiso   1.00
C4384  C     0.30711   0.65721   0.78420   0.12311  Uiso   1.00
N4385  N     0.26391   0.65677   0.77682   0.12311  Uiso   1.00
N4386  N     0.26276   0.67838   0.98314   0.12311  Uiso   1.00
H4387  H     0.33362   0.55718   0.86959   0.12311  Uiso   0.00
C4388  C     0.34798   0.53174   0.83448   0.12311  Uiso   1.00
C4389  C     0.34983   0.56671   0.90517   0.12311  Uiso   1.00
C4390  C     0.34102   0.55333   0.86971   0.12311  Uiso   1.00
C4391  C     0.32622   0.56104   0.86948   0.12311  Uiso   1.00
C4392  C     0.30418   0.53368   0.84631   0.12311  Uiso   1.00
C4393  C     0.31789   0.53221   0.84080   0.12311  Uiso   1.00
N4394  N     0.36109   0.53177   0.84818   0.12311  Uiso   1.00
N4395  N     0.36224   0.55338   0.89186   0.12311  Uiso   1.00
H4396  H     0.45862   0.68218   0.86959   0.12311  Uiso   0.00
C4397  C     0.47298   0.65674   0.83448   0.12311  Uiso   1.00
C4398  C     0.47483   0.69171   0.90517   0.12311  Uiso   1.00
C4399  C     0.46602   0.67833   0.86971   0.12311  Uiso   1.00
C4400  C     0.45122   0.68604   0.86948   0.12311  Uiso   1.00
C4401  C     0.42918   0.65868   0.84631   0.12311  Uiso   1.00
C4402  C     0.44289   0.65721   0.84080   0.12311  Uiso   1.00
N4403  N     0.48609   0.65677   0.84818   0.12311  Uiso   1.00
N4404  N     0.48724   0.67838   0.89186   0.12311  Uiso   1.00
Fe4405 Fe    0.25000   0.61461   0.81250   0.12311  Uiso   1.00
Fe4406 Fe    0.37500   0.73961   0.81250   0.12311  Uiso   1.00
Fe4407 Fe    0.25000   0.63539   0.93750   0.12311  Uiso   1.00
Fe4408 Fe    0.37500   0.51039   0.93750   0.12311  Uiso   1.00
H4409  H     0.58362   0.69282   0.99459   0.12311  Uiso   0.00
C4410  C     0.59798   0.71826   0.95948   0.12311  Uiso   1.00
C4411  C     0.59983   0.68329   0.78017   0.12311  Uiso   1.00
C4412  C     0.59102   0.69667   0.99471   0.12311  Uiso   1.00
C4413  C     0.57622   0.68896   0.99448   0.12311  Uiso   1.00
C4414  C     0.55418   0.71632   0.97131   0.12311  Uiso   1.00
C4415  C     0.56789   0.71779   0.96580   0.12311  Uiso   1.00
N4416  N     0.61109   0.71823   0.97318   0.12311  Uiso   1.00
N4417  N     0.61224   0.69662   0.76686   0.12311  Uiso   1.00
H4418  H     0.70862   0.56782   0.99459   0.12311  Uiso   0.00
C4419  C     0.72298   0.59326   0.95948   0.12311  Uiso   1.00
C4420  C     0.72483   0.55829   0.78017   0.12311  Uiso   1.00
C4421  C     0.71602   0.57167   0.99471   0.12311  Uiso   1.00
C4422  C     0.70122   0.56396   0.99448   0.12311  Uiso   1.00
C4423  C     0.67918   0.59132   0.97131   0.12311  Uiso   1.00
C4424  C     0.69289   0.59279   0.96580   0.12311  Uiso   1.00
N4425  N     0.73609   0.59323   0.97318   0.12311  Uiso   1.00
N4426  N     0.73724   0.57162   0.76686   0.12311  Uiso   1.00
H4427  H     0.66638   0.69282   0.88041   0.12311  Uiso   0.00
C4428  C     0.65202   0.71826   0.91552   0.12311  Uiso   1.00
C4429  C     0.65017   0.68329   0.84483   0.12311  Uiso   1.00
C4430  C     0.65898   0.69667   0.88029   0.12311  Uiso   1.00
C4431  C     0.67378   0.68896   0.88052   0.12311  Uiso   1.00
C4432  C     0.69582   0.71632   0.90369   0.12311  Uiso   1.00
C4433  C     0.68211   0.71779   0.90920   0.12311  Uiso   1.00
N4434  N     0.63891   0.71823   0.90182   0.12311  Uiso   1.00
N4435  N     0.63776   0.69662   0.85814   0.12311  Uiso   1.00
H4436  H     0.54138   0.56782   0.88041   0.12311  Uiso   0.00
C4437  C     0.52702   0.59326   0.91552   0.12311  Uiso   1.00
C4438  C     0.52517   0.55829   0.84483   0.12311  Uiso   1.00
C4439  C     0.53398   0.57167   0.88029   0.12311  Uiso   1.00
C4440  C     0.54878   0.56396   0.88052   0.12311  Uiso   1.00
C4441  C     0.57082   0.59132   0.90369   0.12311  Uiso   1.00
C4442  C     0.55711   0.59279   0.90920   0.12311  Uiso   1.00
N4443  N     0.51391   0.59323   0.90182   0.12311  Uiso   1.00
N4444  N     0.51276   0.57162   0.85814   0.12311  Uiso   1.00
H4445  H     0.66638   0.55718   0.75541   0.12311  Uiso   0.00
C4446  C     0.65202   0.53174   0.79052   0.12311  Uiso   1.00
C4447  C     0.65017   0.56671   0.96983   0.12311  Uiso   1.00
C4448  C     0.65898   0.55333   0.75529   0.12311  Uiso   1.00
C4449  C     0.67378   0.56104   0.75552   0.12311  Uiso   1.00
C4450  C     0.69582   0.53368   0.77869   0.12311  Uiso   1.00
C4451  C     0.68211   0.53221   0.78420   0.12311  Uiso   1.00
N4452  N     0.63891   0.53177   0.77682   0.12311  Uiso   1.00
N4453  N     0.63776   0.55338   0.98314   0.12311  Uiso   1.00
H4454  H     0.54138   0.68218   0.75541   0.12311  Uiso   0.00
C4455  C     0.52702   0.65674   0.79052   0.12311  Uiso   1.00
C4456  C     0.52517   0.69171   0.96983   0.12311  Uiso   1.00
C4457  C     0.53398   0.67833   0.75529   0.12311  Uiso   1.00
C4458  C     0.54878   0.68604   0.75552   0.12311  Uiso   1.00
C4459  C     0.57082   0.65868   0.77869   0.12311  Uiso   1.00
C4460  C     0.55711   0.65721   0.78420   0.12311  Uiso   1.00
N4461  N     0.51391   0.65677   0.77682   0.12311  Uiso   1.00
N4462  N     0.51276   0.67838   0.98314   0.12311  Uiso   1.00
H4463  H     0.58362   0.55718   0.86959   0.12311  Uiso   0.00
C4464  C     0.59798   0.53174   0.83448   0.12311  Uiso   1.00
C4465  C     0.59983   0.56671   0.90517   0.12311  Uiso   1.00
C4466  C     0.59102   0.55333   0.86971   0.12311  Uiso   1.00
C4467  C     0.57622   0.56104   0.86948   0.12311  Uiso   1.00
C4468  C     0.55418   0.53368   0.84631   0.12311  Uiso   1.00
C4469  C     0.56789   0.53221   0.84080   0.12311  Uiso   1.00
N4470  N     0.61109   0.53177   0.84818   0.12311  Uiso   1.00
N4471  N     0.61224   0.55338   0.89186   0.12311  Uiso   1.00
H4472  H     0.70862   0.68218   0.86959   0.12311  Uiso   0.00
C4473  C     0.72298   0.65674   0.83448   0.12311  Uiso   1.00
C4474  C     0.72483   0.69171   0.90517   0.12311  Uiso   1.00
C4475  C     0.71602   0.67833   0.86971   0.12311  Uiso   1.00
C4476  C     0.70122   0.68604   0.86948   0.12311  Uiso   1.00
C4477  C     0.67918   0.65868   0.84631   0.12311  Uiso   1.00
C4478  C     0.69289   0.65721   0.84080   0.12311  Uiso   1.00
N4479  N     0.73609   0.65677   0.84818   0.12311  Uiso   1.00
N4480  N     0.73724   0.67838   0.89186   0.12311  Uiso   1.00
Fe4481 Fe    0.50000   0.61461   0.81250   0.12311  Uiso   1.00
Fe4482 Fe    0.62500   0.73961   0.81250   0.12311  Uiso   1.00
Fe4483 Fe    0.50000   0.63539   0.93750   0.12311  Uiso   1.00
Fe4484 Fe    0.62500   0.51039   0.93750   0.12311  Uiso   1.00
H4485  H     0.83362   0.69282   0.99459   0.12311  Uiso   0.00
C4486  C     0.84798   0.71826   0.95948   0.12311  Uiso   1.00
C4487  C     0.84983   0.68329   0.78017   0.12311  Uiso   1.00
C4488  C     0.84102   0.69667   0.99471   0.12311  Uiso   1.00
C4489  C     0.82622   0.68896   0.99448   0.12311  Uiso   1.00
C4490  C     0.80418   0.71632   0.97131   0.12311  Uiso   1.00
C4491  C     0.81789   0.71779   0.96580   0.12311  Uiso   1.00
N4492  N     0.86109   0.71823   0.97318   0.12311  Uiso   1.00
N4493  N     0.86224   0.69662   0.76686   0.12311  Uiso   1.00
H4494  H     0.95862   0.56782   0.99459   0.12311  Uiso   0.00
C4495  C     0.97298   0.59326   0.95948   0.12311  Uiso   1.00
C4496  C     0.97483   0.55829   0.78017   0.12311  Uiso   1.00
C4497  C     0.96602   0.57167   0.99471   0.12311  Uiso   1.00
C4498  C     0.95122   0.56396   0.99448   0.12311  Uiso   1.00
C4499  C     0.92918   0.59132   0.97131   0.12311  Uiso   1.00
C4500  C     0.94289   0.59279   0.96580   0.12311  Uiso   1.00
N4501  N     0.98609   0.59323   0.97318   0.12311  Uiso   1.00
N4502  N     0.98724   0.57162   0.76686   0.12311  Uiso   1.00
H4503  H     0.91638   0.69282   0.88041   0.12311  Uiso   0.00
C4504  C     0.90202   0.71826   0.91552   0.12311  Uiso   1.00
C4505  C     0.90017   0.68329   0.84483   0.12311  Uiso   1.00
C4506  C     0.90898   0.69667   0.88029   0.12311  Uiso   1.00
C4507  C     0.92378   0.68896   0.88052   0.12311  Uiso   1.00
C4508  C     0.94582   0.71632   0.90369   0.12311  Uiso   1.00
C4509  C     0.93211   0.71779   0.90920   0.12311  Uiso   1.00
N4510  N     0.88891   0.71823   0.90182   0.12311  Uiso   1.00
N4511  N     0.88776   0.69662   0.85814   0.12311  Uiso   1.00
H4512  H     0.79138   0.56782   0.88041   0.12311  Uiso   0.00
C4513  C     0.77702   0.59326   0.91552   0.12311  Uiso   1.00
C4514  C     0.77517   0.55829   0.84483   0.12311  Uiso   1.00
C4515  C     0.78398   0.57167   0.88029   0.12311  Uiso   1.00
C4516  C     0.79878   0.56396   0.88052   0.12311  Uiso   1.00
C4517  C     0.82082   0.59132   0.90369   0.12311  Uiso   1.00
C4518  C     0.80711   0.59279   0.90920   0.12311  Uiso   1.00
N4519  N     0.76391   0.59323   0.90182   0.12311  Uiso   1.00
N4520  N     0.76276   0.57162   0.85814   0.12311  Uiso   1.00
H4521  H     0.91638   0.55718   0.75541   0.12311  Uiso   0.00
C4522  C     0.90202   0.53174   0.79052   0.12311  Uiso   1.00
C4523  C     0.90017   0.56671   0.96983   0.12311  Uiso   1.00
C4524  C     0.90898   0.55333   0.75529   0.12311  Uiso   1.00
C4525  C     0.92378   0.56104   0.75552   0.12311  Uiso   1.00
C4526  C     0.94582   0.53368   0.77869   0.12311  Uiso   1.00
C4527  C     0.93211   0.53221   0.78420   0.12311  Uiso   1.00
N4528  N     0.88891   0.53177   0.77682   0.12311  Uiso   1.00
N4529  N     0.88776   0.55338   0.98314   0.12311  Uiso   1.00
H4530  H     0.79138   0.68218   0.75541   0.12311  Uiso   0.00
C4531  C     0.77702   0.65674   0.79052   0.12311  Uiso   1.00
C4532  C     0.77517   0.69171   0.96983   0.12311  Uiso   1.00
C4533  C     0.78398   0.67833   0.75529   0.12311  Uiso   1.00
C4534  C     0.79878   0.68604   0.75552   0.12311  Uiso   1.00
C4535  C     0.82082   0.65868   0.77869   0.12311  Uiso   1.00
C4536  C     0.80711   0.65721   0.78420   0.12311  Uiso   1.00
N4537  N     0.76391   0.65677   0.77682   0.12311  Uiso   1.00
N4538  N     0.76276   0.67838   0.98314   0.12311  Uiso   1.00
H4539  H     0.83362   0.55718   0.86959   0.12311  Uiso   0.00
C4540  C     0.84798   0.53174   0.83448   0.12311  Uiso   1.00
C4541  C     0.84983   0.56671   0.90517   0.12311  Uiso   1.00
C4542  C     0.84102   0.55333   0.86971   0.12311  Uiso   1.00
C4543  C     0.82622   0.56104   0.86948   0.12311  Uiso   1.00
C4544  C     0.80418   0.53368   0.84631   0.12311  Uiso   1.00
C4545  C     0.81789   0.53221   0.84080   0.12311  Uiso   1.00
N4546  N     0.86109   0.53177   0.84818   0.12311  Uiso   1.00
N4547  N     0.86224   0.55338   0.89186   0.12311  Uiso   1.00
H4548  H     0.95862   0.68218   0.86959   0.12311  Uiso   0.00
C4549  C     0.97298   0.65674   0.83448   0.12311  Uiso   1.00
C4550  C     0.97483   0.69171   0.90517   0.12311  Uiso   1.00
C4551  C     0.96602   0.67833   0.86971   0.12311  Uiso   1.00
C4552  C     0.95122   0.68604   0.86948   0.12311  Uiso   1.00
C4553  C     0.92918   0.65868   0.84631   0.12311  Uiso   1.00
C4554  C     0.94289   0.65721   0.84080   0.12311  Uiso   1.00
N4555  N     0.98609   0.65677   0.84818   0.12311  Uiso   1.00
N4556  N     0.98724   0.67838   0.89186   0.12311  Uiso   1.00
Fe4557 Fe    0.75000   0.61461   0.81250   0.12311  Uiso   1.00
Fe4558 Fe    0.87500   0.73961   0.81250   0.12311  Uiso   1.00
Fe4559 Fe    0.75000   0.63539   0.93750   0.12311  Uiso   1.00
Fe4560 Fe    0.87500   0.51039   0.93750   0.12311  Uiso   1.00
H4561  H     0.08362   0.94282   0.99459   0.12311  Uiso   0.00
C4562  C     0.09798   0.96826   0.95948   0.12311  Uiso   1.00
C4563  C     0.09983   0.93329   0.78017   0.12311  Uiso   1.00
C4564  C     0.09102   0.94667   0.99471   0.12311  Uiso   1.00
C4565  C     0.07622   0.93896   0.99448   0.12311  Uiso   1.00
C4566  C     0.05418   0.96632   0.97131   0.12311  Uiso   1.00
C4567  C     0.06789   0.96779   0.96580   0.12311  Uiso   1.00
N4568  N     0.11109   0.96823   0.97318   0.12311  Uiso   1.00
N4569  N     0.11224   0.94662   0.76686   0.12311  Uiso   1.00
H4570  H     0.20862   0.81782   0.99459   0.12311  Uiso   0.00
C4571  C     0.22298   0.84326   0.95948   0.12311  Uiso   1.00
C4572  C     0.22483   0.80829   0.78017   0.12311  Uiso   1.00
C4573  C     0.21602   0.82167   0.99471   0.12311  Uiso   1.00
C4574  C     0.20122   0.81396   0.99448   0.12311  Uiso   1.00
C4575  C     0.17918   0.84132   0.97131   0.12311  Uiso   1.00
C4576  C     0.19289   0.84279   0.96580   0.12311  Uiso   1.00
N4577  N     0.23609   0.84323   0.97318   0.12311  Uiso   1.00
N4578  N     0.23724   0.82162   0.76686   0.12311  Uiso   1.00
H4579  H     0.16638   0.94282   0.88041   0.12311  Uiso   0.00
C4580  C     0.15202   0.96826   0.91552   0.12311  Uiso   1.00
C4581  C     0.15017   0.93329   0.84483   0.12311  Uiso   1.00
C4582  C     0.15898   0.94667   0.88029   0.12311  Uiso   1.00
C4583  C     0.17378   0.93896   0.88052   0.12311  Uiso   1.00
C4584  C     0.19582   0.96632   0.90369   0.12311  Uiso   1.00
C4585  C     0.18211   0.96779   0.90920   0.12311  Uiso   1.00
N4586  N     0.13891   0.96823   0.90182   0.12311  Uiso   1.00
N4587  N     0.13776   0.94662   0.85814   0.12311  Uiso   1.00
H4588  H     0.04138   0.81782   0.88041   0.12311  Uiso   0.00
C4589  C     0.02702   0.84326   0.91552   0.12311  Uiso   1.00
C4590  C     0.02517   0.80829   0.84483   0.12311  Uiso   1.00
C4591  C     0.03398   0.82167   0.88029   0.12311  Uiso   1.00
C4592  C     0.04878   0.81396   0.88052   0.12311  Uiso   1.00
C4593  C     0.07082   0.84132   0.90369   0.12311  Uiso   1.00
C4594  C     0.05711   0.84279   0.90920   0.12311  Uiso   1.00
N4595  N     0.01391   0.84323   0.90182   0.12311  Uiso   1.00
N4596  N     0.01276   0.82162   0.85814   0.12311  Uiso   1.00
H4597  H     0.16638   0.80718   0.75541   0.12311  Uiso   0.00
C4598  C     0.15202   0.78174   0.79052   0.12311  Uiso   1.00
C4599  C     0.15017   0.81671   0.96983   0.12311  Uiso   1.00
C4600  C     0.15898   0.80333   0.75529   0.12311  Uiso   1.00
C4601  C     0.17378   0.81104   0.75552   0.12311  Uiso   1.00
C4602  C     0.19582   0.78368   0.77869   0.12311  Uiso   1.00
C4603  C     0.18211   0.78221   0.78420   0.12311  Uiso   1.00
N4604  N     0.13891   0.78177   0.77682   0.12311  Uiso   1.00
N4605  N     0.13776   0.80338   0.98314   0.12311  Uiso   1.00
H4606  H     0.04138   0.93218   0.75541   0.12311  Uiso   0.00
C4607  C     0.02702   0.90674   0.79052   0.12311  Uiso   1.00
C4608  C     0.02517   0.94171   0.96983   0.12311  Uiso   1.00
C4609  C     0.03398   0.92833   0.75529   0.12311  Uiso   1.00
C4610  C     0.04878   0.93604   0.75552   0.12311  Uiso   1.00
C4611  C     0.07082   0.90868   0.77869   0.12311  Uiso   1.00
C4612  C     0.05711   0.90721   0.78420   0.12311  Uiso   1.00
N4613  N     0.01391   0.90677   0.77682   0.12311  Uiso   1.00
N4614  N     0.01276   0.92838   0.98314   0.12311  Uiso   1.00
H4615  H     0.08362   0.80718   0.86959   0.12311  Uiso   0.00
C4616  C     0.09798   0.78174   0.83448   0.12311  Uiso   1.00
C4617  C     0.09983   0.81671   0.90517   0.12311  Uiso   1.00
C4618  C     0.09102   0.80333   0.86971   0.12311  Uiso   1.00
C4619  C     0.07622   0.81104   0.86948   0.12311  Uiso   1.00
C4620  C     0.05418   0.78368   0.84631   0.12311  Uiso   1.00
C4621  C     0.06789   0.78221   0.84080   0.12311  Uiso   1.00
N4622  N     0.11109   0.78177   0.84818   0.12311  Uiso   1.00
N4623  N     0.11224   0.80338   0.89186   0.12311  Uiso   1.00
H4624  H     0.20862   0.93218   0.86959   0.12311  Uiso   0.00
C4625  C     0.22298   0.90674   0.83448   0.12311  Uiso   1.00
C4626  C     0.22483   0.94171   0.90517   0.12311  Uiso   1.00
C4627  C     0.21602   0.92833   0.86971   0.12311  Uiso   1.00
C4628  C     0.20122   0.93604   0.86948   0.12311  Uiso   1.00
C4629  C     0.17918   0.90868   0.84631   0.12311  Uiso   1.00
C4630  C     0.19289   0.90721   0.84080   0.12311  Uiso   1.00
N4631  N     0.23609   0.90677   0.84818   0.12311  Uiso   1.00
N4632  N     0.23724   0.92838   0.89186   0.12311  Uiso   1.00
Fe4633 Fe    0.00000   0.86461   0.81250   0.12311  Uiso   1.00
Fe4634 Fe    0.12500   0.98961   0.81250   0.12311  Uiso   1.00
Fe4635 Fe    0.00000   0.88539   0.93750   0.12311  Uiso   1.00
Fe4636 Fe    0.12500   0.76039   0.93750   0.12311  Uiso   1.00
H4637  H     0.33362   0.94282   0.99459   0.12311  Uiso   0.00
C4638  C     0.34798   0.96826   0.95948   0.12311  Uiso   1.00
C4639  C     0.34983   0.93329   0.78017   0.12311  Uiso   1.00
C4640  C     0.34102   0.94667   0.99471   0.12311  Uiso   1.00
C4641  C     0.32622   0.93896   0.99448   0.12311  Uiso   1.00
C4642  C     0.30418   0.96632   0.97131   0.12311  Uiso   1.00
C4643  C     0.31789   0.96779   0.96580   0.12311  Uiso   1.00
N4644  N     0.36109   0.96823   0.97318   0.12311  Uiso   1.00
N4645  N     0.36224   0.94662   0.76686   0.12311  Uiso   1.00
H4646  H     0.45862   0.81782   0.99459   0.12311  Uiso   0.00
C4647  C     0.47298   0.84326   0.95948   0.12311  Uiso   1.00
C4648  C     0.47483   0.80829   0.78017   0.12311  Uiso   1.00
C4649  C     0.46602   0.82167   0.99471   0.12311  Uiso   1.00
C4650  C     0.45122   0.81396   0.99448   0.12311  Uiso   1.00
C4651  C     0.42918   0.84132   0.97131   0.12311  Uiso   1.00
C4652  C     0.44289   0.84279   0.96580   0.12311  Uiso   1.00
N4653  N     0.48609   0.84323   0.97318   0.12311  Uiso   1.00
N4654  N     0.48724   0.82162   0.76686   0.12311  Uiso   1.00
H4655  H     0.41638   0.94282   0.88041   0.12311  Uiso   0.00
C4656  C     0.40202   0.96826   0.91552   0.12311  Uiso   1.00
C4657  C     0.40017   0.93329   0.84483   0.12311  Uiso   1.00
C4658  C     0.40898   0.94667   0.88029   0.12311  Uiso   1.00
C4659  C     0.42378   0.93896   0.88052   0.12311  Uiso   1.00
C4660  C     0.44582   0.96632   0.90369   0.12311  Uiso   1.00
C4661  C     0.43211   0.96779   0.90920   0.12311  Uiso   1.00
N4662  N     0.38891   0.96823   0.90182   0.12311  Uiso   1.00
N4663  N     0.38776   0.94662   0.85814   0.12311  Uiso   1.00
H4664  H     0.29138   0.81782   0.88041   0.12311  Uiso   0.00
C4665  C     0.27702   0.84326   0.91552   0.12311  Uiso   1.00
C4666  C     0.27517   0.80829   0.84483   0.12311  Uiso   1.00
C4667  C     0.28398   0.82167   0.88029   0.12311  Uiso   1.00
C4668  C     0.29878   0.81396   0.88052   0.12311  Uiso   1.00
C4669  C     0.32082   0.84132   0.90369   0.12311  Uiso   1.00
C4670  C     0.30711   0.84279   0.90920   0.12311  Uiso   1.00
N4671  N     0.26391   0.84323   0.90182   0.12311  Uiso   1.00
N4672  N     0.26276   0.82162   0.85814   0.12311  Uiso   1.00
H4673  H     0.41638   0.80718   0.75541   0.12311  Uiso   0.00
C4674  C     0.40202   0.78174   0.79052   0.12311  Uiso   1.00
C4675  C     0.40017   0.81671   0.96983   0.12311  Uiso   1.00
C4676  C     0.40898   0.80333   0.75529   0.12311  Uiso   1.00
C4677  C     0.42378   0.81104   0.75552   0.12311  Uiso   1.00
C4678  C     0.44582   0.78368   0.77869   0.12311  Uiso   1.00
C4679  C     0.43211   0.78221   0.78420   0.12311  Uiso   1.00
N4680  N     0.38891   0.78177   0.77682   0.12311  Uiso   1.00
N4681  N     0.38776   0.80338   0.98314   0.12311  Uiso   1.00
H4682  H     0.29138   0.93218   0.75541   0.12311  Uiso   0.00
C4683  C     0.27702   0.90674   0.79052   0.12311  Uiso   1.00
C4684  C     0.27517   0.94171   0.96983   0.12311  Uiso   1.00
C4685  C     0.28398   0.92833   0.75529   0.12311  Uiso   1.00
C4686  C     0.29878   0.93604   0.75552   0.12311  Uiso   1.00
C4687  C     0.32082   0.90868   0.77869   0.12311  Uiso   1.00
C4688  C     0.30711   0.90721   0.78420   0.12311  Uiso   1.00
N4689  N     0.26391   0.90677   0.77682   0.12311  Uiso   1.00
N4690  N     0.26276   0.92838   0.98314   0.12311  Uiso   1.00
H4691  H     0.33362   0.80718   0.86959   0.12311  Uiso   0.00
C4692  C     0.34798   0.78174   0.83448   0.12311  Uiso   1.00
C4693  C     0.34983   0.81671   0.90517   0.12311  Uiso   1.00
C4694  C     0.34102   0.80333   0.86971   0.12311  Uiso   1.00
C4695  C     0.32622   0.81104   0.86948   0.12311  Uiso   1.00
C4696  C     0.30418   0.78368   0.84631   0.12311  Uiso   1.00
C4697  C     0.31789   0.78221   0.84080   0.12311  Uiso   1.00
N4698  N     0.36109   0.78177   0.84818   0.12311  Uiso   1.00
N4699  N     0.36224   0.80338   0.89186   0.12311  Uiso   1.00
H4700  H     0.45862   0.93218   0.86959   0.12311  Uiso   0.00
C4701  C     0.47298   0.90674   0.83448   0.12311  Uiso   1.00
C4702  C     0.47483   0.94171   0.90517   0.12311  Uiso   1.00
C4703  C     0.46602   0.92833   0.86971   0.12311  Uiso   1.00
C4704  C     0.45122   0.93604   0.86948   0.12311  Uiso   1.00
C4705  C     0.42918   0.90868   0.84631   0.12311  Uiso   1.00
C4706  C     0.44289   0.90721   0.84080   0.12311  Uiso   1.00
N4707  N     0.48609   0.90677   0.84818   0.12311  Uiso   1.00
N4708  N     0.48724   0.92838   0.89186   0.12311  Uiso   1.00
Fe4709 Fe    0.25000   0.86461   0.81250   0.12311  Uiso   1.00
Fe4710 Fe    0.37500   0.98961   0.81250   0.12311  Uiso   1.00
Fe4711 Fe    0.25000   0.88539   0.93750   0.12311  Uiso   1.00
Fe4712 Fe    0.37500   0.76039   0.93750   0.12311  Uiso   1.00
H4713  H     0.58362   0.94282   0.99459   0.12311  Uiso   0.00
C4714  C     0.59798   0.96826   0.95948   0.12311  Uiso   1.00
C4715  C     0.59983   0.93329   0.78017   0.12311  Uiso   1.00
C4716  C     0.59102   0.94667   0.99471   0.12311  Uiso   1.00
C4717  C     0.57622   0.93896   0.99448   0.12311  Uiso   1.00
C4718  C     0.55418   0.96632   0.97131   0.12311  Uiso   1.00
C4719  C     0.56789   0.96779   0.96580   0.12311  Uiso   1.00
N4720  N     0.61109   0.96823   0.97318   0.12311  Uiso   1.00
N4721  N     0.61224   0.94662   0.76686   0.12311  Uiso   1.00
H4722  H     0.70862   0.81782   0.99459   0.12311  Uiso   0.00
C4723  C     0.72298   0.84326   0.95948   0.12311  Uiso   1.00
C4724  C     0.72483   0.80829   0.78017   0.12311  Uiso   1.00
C4725  C     0.71602   0.82167   0.99471   0.12311  Uiso   1.00
C4726  C     0.70122   0.81396   0.99448   0.12311  Uiso   1.00
C4727  C     0.67918   0.84132   0.97131   0.12311  Uiso   1.00
C4728  C     0.69289   0.84279   0.96580   0.12311  Uiso   1.00
N4729  N     0.73609   0.84323   0.97318   0.12311  Uiso   1.00
N4730  N     0.73724   0.82162   0.76686   0.12311  Uiso   1.00
H4731  H     0.66638   0.94282   0.88041   0.12311  Uiso   0.00
C4732  C     0.65202   0.96826   0.91552   0.12311  Uiso   1.00
C4733  C     0.65017   0.93329   0.84483   0.12311  Uiso   1.00
C4734  C     0.65898   0.94667   0.88029   0.12311  Uiso   1.00
C4735  C     0.67378   0.93896   0.88052   0.12311  Uiso   1.00
C4736  C     0.69582   0.96632   0.90369   0.12311  Uiso   1.00
C4737  C     0.68211   0.96779   0.90920   0.12311  Uiso   1.00
N4738  N     0.63891   0.96823   0.90182   0.12311  Uiso   1.00
N4739  N     0.63776   0.94662   0.85814   0.12311  Uiso   1.00
H4740  H     0.54138   0.81782   0.88041   0.12311  Uiso   0.00
C4741  C     0.52702   0.84326   0.91552   0.12311  Uiso   1.00
C4742  C     0.52517   0.80829   0.84483   0.12311  Uiso   1.00
C4743  C     0.53398   0.82167   0.88029   0.12311  Uiso   1.00
C4744  C     0.54878   0.81396   0.88052   0.12311  Uiso   1.00
C4745  C     0.57082   0.84132   0.90369   0.12311  Uiso   1.00
C4746  C     0.55711   0.84279   0.90920   0.12311  Uiso   1.00
N4747  N     0.51391   0.84323   0.90182   0.12311  Uiso   1.00
N4748  N     0.51276   0.82162   0.85814   0.12311  Uiso   1.00
H4749  H     0.66638   0.80718   0.75541   0.12311  Uiso   0.00
C4750  C     0.65202   0.78174   0.79052   0.12311  Uiso   1.00
C4751  C     0.65017   0.81671   0.96983   0.12311  Uiso   1.00
C4752  C     0.65898   0.80333   0.75529   0.12311  Uiso   1.00
C4753  C     0.67378   0.81104   0.75552   0.12311  Uiso   1.00
C4754  C     0.69582   0.78368   0.77869   0.12311  Uiso   1.00
C4755  C     0.68211   0.78221   0.78420   0.12311  Uiso   1.00
N4756  N     0.63891   0.78177   0.77682   0.12311  Uiso   1.00
N4757  N     0.63776   0.80338   0.98314   0.12311  Uiso   1.00
H4758  H     0.54138   0.93218   0.75541   0.12311  Uiso   0.00
C4759  C     0.52702   0.90674   0.79052   0.12311  Uiso   1.00
C4760  C     0.52517   0.94171   0.96983   0.12311  Uiso   1.00
C4761  C     0.53398   0.92833   0.75529   0.12311  Uiso   1.00
C4762  C     0.54878   0.93604   0.75552   0.12311  Uiso   1.00
C4763  C     0.57082   0.90868   0.77869   0.12311  Uiso   1.00
C4764  C     0.55711   0.90721   0.78420   0.12311  Uiso   1.00
N4765  N     0.51391   0.90677   0.77682   0.12311  Uiso   1.00
N4766  N     0.51276   0.92838   0.98314   0.12311  Uiso   1.00
H4767  H     0.58362   0.80718   0.86959   0.12311  Uiso   0.00
C4768  C     0.59798   0.78174   0.83448   0.12311  Uiso   1.00
C4769  C     0.59983   0.81671   0.90517   0.12311  Uiso   1.00
C4770  C     0.59102   0.80333   0.86971   0.12311  Uiso   1.00
C4771  C     0.57622   0.81104   0.86948   0.12311  Uiso   1.00
C4772  C     0.55418   0.78368   0.84631   0.12311  Uiso   1.00
C4773  C     0.56789   0.78221   0.84080   0.12311  Uiso   1.00
N4774  N     0.61109   0.78177   0.84818   0.12311  Uiso   1.00
N4775  N     0.61224   0.80338   0.89186   0.12311  Uiso   1.00
H4776  H     0.70862   0.93218   0.86959   0.12311  Uiso   0.00
C4777  C     0.72298   0.90674   0.83448   0.12311  Uiso   1.00
C4778  C     0.72483   0.94171   0.90517   0.12311  Uiso   1.00
C4779  C     0.71602   0.92833   0.86971   0.12311  Uiso   1.00
C4780  C     0.70122   0.93604   0.86948   0.12311  Uiso   1.00
C4781  C     0.67918   0.90868   0.84631   0.12311  Uiso   1.00
C4782  C     0.69289   0.90721   0.84080   0.12311  Uiso   1.00
N4783  N     0.73609   0.90677   0.84818   0.12311  Uiso   1.00
N4784  N     0.73724   0.92838   0.89186   0.12311  Uiso   1.00
Fe4785 Fe    0.50000   0.86461   0.81250   0.12311  Uiso   1.00
Fe4786 Fe    0.62500   0.98961   0.81250   0.12311  Uiso   1.00
Fe4787 Fe    0.50000   0.88539   0.93750   0.12311  Uiso   1.00
Fe4788 Fe    0.62500   0.76039   0.93750   0.12311  Uiso   1.00
H4789  H     0.83362   0.94282   0.99459   0.12311  Uiso   0.00
C4790  C     0.84798   0.96826   0.95948   0.12311  Uiso   1.00
C4791  C     0.84983   0.93329   0.78017   0.12311  Uiso   1.00
C4792  C     0.84102   0.94667   0.99471   0.12311  Uiso   1.00
C4793  C     0.82622   0.93896   0.99448   0.12311  Uiso   1.00
C4794  C     0.80418   0.96632   0.97131   0.12311  Uiso   1.00
C4795  C     0.81789   0.96779   0.96580   0.12311  Uiso   1.00
N4796  N     0.86109   0.96823   0.97318   0.12311  Uiso   1.00
N4797  N     0.86224   0.94662   0.76686   0.12311  Uiso   1.00
H4798  H     0.95862   0.81782   0.99459   0.12311  Uiso   0.00
C4799  C     0.97298   0.84326   0.95948   0.12311  Uiso   1.00
C4800  C     0.97483   0.80829   0.78017   0.12311  Uiso   1.00
C4801  C     0.96602   0.82167   0.99471   0.12311  Uiso   1.00
C4802  C     0.95122   0.81396   0.99448   0.12311  Uiso   1.00
C4803  C     0.92918   0.84132   0.97131   0.12311  Uiso   1.00
C4804  C     0.94289   0.84279   0.96580   0.12311  Uiso   1.00
N4805  N     0.98609   0.84323   0.97318   0.12311  Uiso   1.00
N4806  N     0.98724   0.82162   0.76686   0.12311  Uiso   1.00
H4807  H     0.91638   0.94282   0.88041   0.12311  Uiso   0.00
C4808  C     0.90202   0.96826   0.91552   0.12311  Uiso   1.00
C4809  C     0.90017   0.93329   0.84483   0.12311  Uiso   1.00
C4810  C     0.90898   0.94667   0.88029   0.12311  Uiso   1.00
C4811  C     0.92378   0.93896   0.88052   0.12311  Uiso   1.00
C4812  C     0.94582   0.96632   0.90369   0.12311  Uiso   1.00
C4813  C     0.93211   0.96779   0.90920   0.12311  Uiso   1.00
N4814  N     0.88891   0.96823   0.90182   0.12311  Uiso   1.00
N4815  N     0.88776   0.94662   0.85814   0.12311  Uiso   1.00
H4816  H     0.79138   0.81782   0.88041   0.12311  Uiso   0.00
C4817  C     0.77702   0.84326   0.91552   0.12311  Uiso   1.00
C4818  C     0.77517   0.80829   0.84483   0.12311  Uiso   1.00
C4819  C     0.78398   0.82167   0.88029   0.12311  Uiso   1.00
C4820  C     0.79878   0.81396   0.88052   0.12311  Uiso   1.00
C4821  C     0.82082   0.84132   0.90369   0.12311  Uiso   1.00
C4822  C     0.80711   0.84279   0.90920   0.12311  Uiso   1.00
N4823  N     0.76391   0.84323   0.90182   0.12311  Uiso   1.00
N4824  N     0.76276   0.82162   0.85814   0.12311  Uiso   1.00
H4825  H     0.91638   0.80718   0.75541   0.12311  Uiso   0.00
C4826  C     0.90202   0.78174   0.79052   0.12311  Uiso   1.00
C4827  C     0.90017   0.81671   0.96983   0.12311  Uiso   1.00
C4828  C     0.90898   0.80333   0.75529   0.12311  Uiso   1.00
C4829  C     0.92378   0.81104   0.75552   0.12311  Uiso   1.00
C4830  C     0.94582   0.78368   0.77869   0.12311  Uiso   1.00
C4831  C     0.93211   0.78221   0.78420   0.12311  Uiso   1.00
N4832  N     0.88891   0.78177   0.77682   0.12311  Uiso   1.00
N4833  N     0.88776   0.80338   0.98314   0.12311  Uiso   1.00
H4834  H     0.79138   0.93218   0.75541   0.12311  Uiso   0.00
C4835  C     0.77702   0.90674   0.79052   0.12311  Uiso   1.00
C4836  C     0.77517   0.94171   0.96983   0.12311  Uiso   1.00
C4837  C     0.78398   0.92833   0.75529   0.12311  Uiso   1.00
C4838  C     0.79878   0.93604   0.75552   0.12311  Uiso   1.00
C4839  C     0.82082   0.90868   0.77869   0.12311  Uiso   1.00
C4840  C     0.80711   0.90721   0.78420   0.12311  Uiso   1.00
N4841  N     0.76391   0.90677   0.77682   0.12311  Uiso   1.00
N4842  N     0.76276   0.92838   0.98314   0.12311  Uiso   1.00
H4843  H     0.83362   0.80718   0.86959   0.12311  Uiso   0.00
C4844  C     0.84798   0.78174   0.83448   0.12311  Uiso   1.00
C4845  C     0.84983   0.81671   0.90517   0.12311  Uiso   1.00
C4846  C     0.84102   0.80333   0.86971   0.12311  Uiso   1.00
C4847  C     0.82622   0.81104   0.86948   0.12311  Uiso   1.00
C4848  C     0.80418   0.78368   0.84631   0.12311  Uiso   1.00
C4849  C     0.81789   0.78221   0.84080   0.12311  Uiso   1.00
N4850  N     0.86109   0.78177   0.84818   0.12311  Uiso   1.00
N4851  N     0.86224   0.80338   0.89186   0.12311  Uiso   1.00
H4852  H     0.95862   0.93218   0.86959   0.12311  Uiso   0.00
C4853  C     0.97298   0.90674   0.83448   0.12311  Uiso   1.00
C4854  C     0.97483   0.94171   0.90517   0.12311  Uiso   1.00
C4855  C     0.96602   0.92833   0.86971   0.12311  Uiso   1.00
C4856  C     0.95122   0.93604   0.86948   0.12311  Uiso   1.00
C4857  C     0.92918   0.90868   0.84631   0.12311  Uiso   1.00
C4858  C     0.94289   0.90721   0.84080   0.12311  Uiso   1.00
N4859  N     0.98609   0.90677   0.84818   0.12311  Uiso   1.00
N4860  N     0.98724   0.92838   0.89186   0.12311  Uiso   1.00
Fe4861 Fe    0.75000   0.86461   0.81250   0.12311  Uiso   1.00
Fe4862 Fe    0.87500   0.98961   0.81250   0.12311  Uiso   1.00
Fe4863 Fe    0.75000   0.88539   0.93750   0.12311  Uiso   1.00
Fe4864 Fe    0.87500   0.76039   0.93750   0.12311  Uiso   1.00
loop_
_geom_bond_atom_site_label_1
_geom_bond_atom_site_label_2
_geom_bond_distance
_geom_bond_site_symmetry_2
_ccdc_geom_bond_type
H1     C4      0.750   .     S
H1     C5      0.750   .     S
C2     C4      1.360   .     S
C2     N8      1.360   .     D
C3     C3652   1.360   1_554 S
C3     N9      1.360   .     D
C4     C1219   1.360   .     S
C4     C5      1.500   .     S
C5     C7      1.390   .     S
C5     C1267   1.390   .     S
C6     C7      1.390   .     D
C6     C1266   1.390   .     S
N8     N1225   1.360   .     S
N8     Fe380   2.091   .     S
N9     N3656   1.360   1_554 S
N9     Fe74    2.139   .     S
H10    C13     0.750   .     S
H10    C14     0.750   .     S
C11    C13     1.360   .     S
C11    N17     1.360   .     D
C12    C3661   1.360   1_554 S
C12    N18     1.360   .     D
C13    C1228   1.360   .     S
C13    C14     1.500   .     S
C14    C16     1.390   .     S
C14    C1258   1.390   .     S
C15    C16     1.390   .     D
C15    C1257   1.390   .     S
N17    N1234   1.360   .     S
N17    Fe151   2.091   .     S
N18    N3665   1.360   1_554 S
N18    Fe149   2.139   .     S
H19    C22     0.750   .     S
H19    C23     0.750   .     S
C20    C22     1.360   .     S
C20    N26     1.360   .     D
C21    C22     1.360   .     S
C21    N27     1.360   .     D
C22    C23     1.500   .     S
C23    C25     1.390   .     S
C23    C69     1.390   .     S
C24    C25     1.390   .     D
C24    C68     1.390   .     S
N26    N27     1.360   .     S
N26    Fe380   2.091   .     S
N27    Fe74    2.139   .     S
H28    C31     0.750   .     S
H28    C32     0.750   .     S
C29    C31     1.360   .     S
C29    N35     1.360   .     D
C30    C31     1.360   .     S
C30    N36     1.360   .     D
C31    C32     1.500   .     S
C32    C34     1.390   .     S
C32    C60     1.390   .     S
C33    C34     1.390   .     D
C33    C59     1.390   .     S
N35    N36     1.360   .     S
N35    Fe75    2.091   .     S
N36    Fe73    2.139   .     S
H37    C40     0.750   .     S
H37    C41     0.750   .     S
C38    C40     1.360   .     S
C38    N44     1.360   .     D
C39    C1256   1.360   .     S
C39    N45     1.360   .     D
C40    C3687   1.360   1_554 S
C40    C41     1.500   .     S
C41    C43     1.390   .     S
C41    C3663   1.390   1_554 S
C42    C43     1.390   .     D
C42    C3662   1.390   1_554 S
N44    N3693   1.360   1_554 S
N44    Fe986   2.091   1_545 S
N45    N1260   1.360   .     S
N45    Fe76    2.139   .     S
H46    C49     0.750   .     S
H46    C50     0.750   .     S
C47    C49     1.360   .     S
C47    N53     1.360   .     D
C48    C1265   1.360   .     S
C48    N54     1.360   .     D
C49    C3696   1.360   1_554 S
C49    C50     1.500   .     S
C50    C52     1.390   .     S
C50    C3654   1.390   1_554 S
C51    C52     1.390   .     D
C51    C3653   1.390   1_554 S
N53    N3702   1.360   1_554 S
N53    Fe73    2.091   .     S
N54    N1269   1.360   .     S
N54    Fe75    2.139   .     S
H55    C58     0.750   .     S
H55    C59     0.750   .     S
C56    C58     1.360   .     S
C56    N62     1.360   .     D
C57    C58     1.360   .     S
C57    N63     1.360   .     D
C58    C59     1.500   .     S
C59    C61     1.390   .     S
C60    C61     1.390   .     D
N62    N63     1.360   .     S
N62    Fe986   2.091   1_545 S
N63    Fe76    2.139   .     S
H64    C67     0.750   .     S
H64    C68     0.750   .     S
C65    C67     1.360   .     S
C65    N71     1.360   .     D
C66    C67     1.360   .     S
C66    N72     1.360   .     D
C67    C68     1.500   .     S
C68    C70     1.390   .     S
C69    C70     1.390   .     D
N71    N72     1.360   .     S
N71    Fe149   2.091   .     S
N72    Fe151   2.139   .     S
Fe73   N299    2.091   1_455 S
Fe73   N246    2.139   1_455 S
Fe74   N348    2.091   .     S
Fe74   N366    2.091   .     S
Fe75   N245    2.091   1_455 S
Fe75   N300    2.139   1_455 S
Fe76   N920    2.091   1_545 S
Fe76   N938    2.091   1_545 S
H77    C80     0.750   .     S
H77    C81     0.750   .     S
C78    C80     1.360   .     S
C78    N84     1.360   .     D
C79    C3728   1.360   1_554 S
C79    N85     1.360   .     D
C80    C1295   1.360   .     S
C80    C81     1.500   .     S
C81    C83     1.390   .     S
C81    C1343   1.390   .     S
C82    C83     1.390   .     D
C82    C1342   1.390   .     S
N84    N1301   1.360   .     S
N84    Fe456   2.091   .     S
N85    N3732   1.360   1_554 S
N85    Fe150   2.139   .     S
H86    C89     0.750   .     S
H86    C90     0.750   .     S
C87    C89     1.360   .     S
C87    N93     1.360   .     D
C88    C3737   1.360   1_554 S
C88    N94     1.360   .     D
C89    C1304   1.360   .     S
C89    C90     1.500   .     S
C90    C92     1.390   .     S
C90    C1334   1.390   .     S
C91    C92     1.390   .     D
C91    C1333   1.390   .     S
N93    N1310   1.360   .     S
N93    Fe227   2.091   .     S
N94    N3741   1.360   1_554 S
N94    Fe225   2.139   .     S
H95    C98     0.750   .     S
H95    C99     0.750   .     S
C96    C98     1.360   .     S
C96    N102    1.360   .     D
C97    C98     1.360   .     S
C97    N103    1.360   .     D
C98    C99     1.500   .     S
C99    C101    1.390   .     S
C99    C145    1.390   .     S
C100   C101    1.390   .     D
C100   C144    1.390   .     S
N102   N103    1.360   .     S
N102   Fe456   2.091   .     S
N103   Fe150   2.139   .     S
H104   C107    0.750   .     S
H104   C108    0.750   .     S
C105   C107    1.360   .     S
C105   N111    1.360   .     D
C106   C107    1.360   .     S
C106   N112    1.360   .     D
C107   C108    1.500   .     S
C108   C110    1.390   .     S
C108   C136    1.390   .     S
C109   C110    1.390   .     D
C109   C135    1.390   .     S
N111   N112    1.360   .     S
N111   Fe151   2.091   .     S
N112   Fe149   2.139   .     S
H113   C116    0.750   .     S
H113   C117    0.750   .     S
C114   C116    1.360   .     S
C114   N120    1.360   .     D
C115   C1332   1.360   .     S
C115   N121    1.360   .     D
C116   C3763   1.360   1_554 S
C116   C117    1.500   .     S
C117   C119    1.390   .     S
C117   C3739   1.390   1_554 S
C118   C119    1.390   .     D
C118   C3738   1.390   1_554 S
N120   N3769   1.360   1_554 S
N120   Fe1062  2.091   1_545 S
N121   N1336   1.360   .     S
N121   Fe152   2.139   .     S
H122   C125    0.750   .     S
H122   C126    0.750   .     S
C123   C125    1.360   .     S
C123   N129    1.360   .     D
C124   C1341   1.360   .     S
C124   N130    1.360   .     D
C125   C3772   1.360   1_554 S
C125   C126    1.500   .     S
C126   C128    1.390   .     S
C126   C3730   1.390   1_554 S
C127   C128    1.390   .     D
C127   C3729   1.390   1_554 S
N129   N3778   1.360   1_554 S
N129   Fe149   2.091   .     S
N130   N1345   1.360   .     S
N130   Fe151   2.139   .     S
H131   C134    0.750   .     S
H131   C135    0.750   .     S
C132   C134    1.360   .     S
C132   N138    1.360   .     D
C133   C134    1.360   .     S
C133   N139    1.360   .     D
C134   C135    1.500   .     S
C135   C137    1.390   .     S
C136   C137    1.390   .     D
N138   N139    1.360   .     S
N138   Fe1062  2.091   1_545 S
N139   Fe152   2.139   .     S
H140   C143    0.750   .     S
H140   C144    0.750   .     S
C141   C143    1.360   .     S
C141   N147    1.360   .     D
C142   C143    1.360   .     S
C142   N148    1.360   .     D
C143   C144    1.500   .     S
C144   C146    1.390   .     S
C145   C146    1.390   .     D
N147   N148    1.360   .     S
N147   Fe225   2.091   .     S
N148   Fe227   2.139   .     S
Fe150  N424    2.091   .     S
Fe150  N442    2.091   .     S
Fe152  N996    2.091   1_545 S
Fe152  N1014   2.091   1_545 S
H153   C156    0.750   .     S
H153   C157    0.750   .     S
C154   C156    1.360   .     S
C154   N160    1.360   .     D
C155   C3804   1.360   1_554 S
C155   N161    1.360   .     D
C156   C1371   1.360   .     S
C156   C157    1.500   .     S
C157   C159    1.390   .     S
C157   C1419   1.390   .     S
C158   C159    1.390   .     D
C158   C1418   1.390   .     S
N160   N1377   1.360   .     S
N160   Fe532   2.091   .     S
N161   N3808   1.360   1_554 S
N161   Fe226   2.139   .     S
H162   C165    0.750   .     S
H162   C166    0.750   .     S
C163   C165    1.360   .     S
C163   N169    1.360   .     D
C164   C3813   1.360   1_554 S
C164   N170    1.360   .     D
C165   C1380   1.360   .     S
C165   C166    1.500   .     S
C166   C168    1.390   .     S
C166   C1410   1.390   .     S
C167   C168    1.390   .     D
C167   C1409   1.390   .     S
N169   N1386   1.360   .     S
N169   Fe303   2.091   .     S
N170   N3817   1.360   1_554 S
N170   Fe301   2.139   .     S
H171   C174    0.750   .     S
H171   C175    0.750   .     S
C172   C174    1.360   .     S
C172   N178    1.360   .     D
C173   C174    1.360   .     S
C173   N179    1.360   .     D
C174   C175    1.500   .     S
C175   C177    1.390   .     S
C175   C221    1.390   .     S
C176   C177    1.390   .     D
C176   C220    1.390   .     S
N178   N179    1.360   .     S
N178   Fe532   2.091   .     S
N179   Fe226   2.139   .     S
H180   C183    0.750   .     S
H180   C184    0.750   .     S
C181   C183    1.360   .     S
C181   N187    1.360   .     D
C182   C183    1.360   .     S
C182   N188    1.360   .     D
C183   C184    1.500   .     S
C184   C186    1.390   .     S
C184   C212    1.390   .     S
C185   C186    1.390   .     D
C185   C211    1.390   .     S
N187   N188    1.360   .     S
N187   Fe227   2.091   .     S
N188   Fe225   2.139   .     S
H189   C192    0.750   .     S
H189   C193    0.750   .     S
C190   C192    1.360   .     S
C190   N196    1.360   .     D
C191   C1408   1.360   .     S
C191   N197    1.360   .     D
C192   C3839   1.360   1_554 S
C192   C193    1.500   .     S
C193   C195    1.390   .     S
C193   C3815   1.390   1_554 S
C194   C195    1.390   .     D
C194   C3814   1.390   1_554 S
N196   N3845   1.360   1_554 S
N196   Fe1138  2.091   1_545 S
N197   N1412   1.360   .     S
N197   Fe228   2.139   .     S
H198   C201    0.750   .     S
H198   C202    0.750   .     S
C199   C201    1.360   .     S
C199   N205    1.360   .     D
C200   C1417   1.360   .     S
C200   N206    1.360   .     D
C201   C3848   1.360   1_554 S
C201   C202    1.500   .     S
C202   C204    1.390   .     S
C202   C3806   1.390   1_554 S
C203   C204    1.390   .     D
C203   C3805   1.390   1_554 S
N205   N3854   1.360   1_554 S
N205   Fe225   2.091   .     S
N206   N1421   1.360   .     S
N206   Fe227   2.139   .     S
H207   C210    0.750   .     S
H207   C211    0.750   .     S
C208   C210    1.360   .     S
C208   N214    1.360   .     D
C209   C210    1.360   .     S
C209   N215    1.360   .     D
C210   C211    1.500   .     S
C211   C213    1.390   .     S
C212   C213    1.390   .     D
N214   N215    1.360   .     S
N214   Fe1138  2.091   1_545 S
N215   Fe228   2.139   .     S
H216   C219    0.750   .     S
H216   C220    0.750   .     S
C217   C219    1.360   .     S
C217   N223    1.360   .     D
C218   C219    1.360   .     S
C218   N224    1.360   .     D
C219   C220    1.500   .     S
C220   C222    1.390   .     S
C221   C222    1.390   .     D
N223   N224    1.360   .     S
N223   Fe301   2.091   .     S
N224   Fe303   2.139   .     S
Fe226  N500    2.091   .     S
Fe226  N518    2.091   .     S
Fe228  N1072   2.091   1_545 S
Fe228  N1090   2.091   1_545 S
H229   C232    0.750   .     S
H229   C233    0.750   .     S
C230   C232    1.360   .     S
C230   N236    1.360   .     D
C231   C3880   1.360   1_554 S
C231   N237    1.360   .     D
C232   C1447   1.360   .     S
C232   C233    1.500   .     S
C233   C235    1.390   .     S
C233   C1495   1.390   .     S
C234   C235    1.390   .     D
C234   C1494   1.390   .     S
N236   N1453   1.360   .     S
N236   Fe608   2.091   .     S
N237   N3884   1.360   1_554 S
N237   Fe302   2.139   .     S
H238   C241    0.750   .     S
H238   C242    0.750   .     S
C239   C241    1.360   .     S
C239   N245    1.360   .     D
C240   C3889   1.360   1_554 S
C240   N246    1.360   .     D
C241   C1456   1.360   .     S
C241   C242    1.500   .     S
C242   C244    1.390   .     S
C242   C1486   1.390   .     S
C243   C244    1.390   .     D
C243   C1485   1.390   .     S
N245   N1462   1.360   .     S
N245   Fe75    2.091   1_655 S
N246   N3893   1.360   1_554 S
N246   Fe73    2.139   1_655 S
H247   C250    0.750   .     S
H247   C251    0.750   .     S
C248   C250    1.360   .     S
C248   N254    1.360   .     D
C249   C250    1.360   .     S
C249   N255    1.360   .     D
C250   C251    1.500   .     S
C251   C253    1.390   .     S
C251   C297    1.390   .     S
C252   C253    1.390   .     D
C252   C296    1.390   .     S
N254   N255    1.360   .     S
N254   Fe608   2.091   .     S
N255   Fe302   2.139   .     S
H256   C259    0.750   .     S
H256   C260    0.750   .     S
C257   C259    1.360   .     S
C257   N263    1.360   .     D
C258   C259    1.360   .     S
C258   N264    1.360   .     D
C259   C260    1.500   .     S
C260   C262    1.390   .     S
C260   C288    1.390   .     S
C261   C262    1.390   .     D
C261   C287    1.390   .     S
N263   N264    1.360   .     S
N263   Fe303   2.091   .     S
N264   Fe301   2.139   .     S
H265   C268    0.750   .     S
H265   C269    0.750   .     S
C266   C268    1.360   .     S
C266   N272    1.360   .     D
C267   C1484   1.360   .     S
C267   N273    1.360   .     D
C268   C3915   1.360   1_554 S
C268   C269    1.500   .     S
C269   C271    1.390   .     S
C269   C3891   1.390   1_554 S
C270   C271    1.390   .     D
C270   C3890   1.390   1_554 S
N272   N3921   1.360   1_554 S
N272   Fe1214  2.091   1_545 S
N273   N1488   1.360   .     S
N273   Fe304   2.139   .     S
H274   C277    0.750   .     S
H274   C278    0.750   .     S
C275   C277    1.360   .     S
C275   N281    1.360   .     D
C276   C1493   1.360   .     S
C276   N282    1.360   .     D
C277   C3924   1.360   1_554 S
C277   C278    1.500   .     S
C278   C280    1.390   .     S
C278   C3882   1.390   1_554 S
C279   C280    1.390   .     D
C279   C3881   1.390   1_554 S
N281   N3930   1.360   1_554 S
N281   Fe301   2.091   .     S
N282   N1497   1.360   .     S
N282   Fe303   2.139   .     S
H283   C286    0.750   .     S
H283   C287    0.750   .     S
C284   C286    1.360   .     S
C284   N290    1.360   .     D
C285   C286    1.360   .     S
C285   N291    1.360   .     D
C286   C287    1.500   .     S
C287   C289    1.390   .     S
C288   C289    1.390   .     D
N290   N291    1.360   .     S
N290   Fe1214  2.091   1_545 S
N291   Fe304   2.139   .     S
H292   C295    0.750   .     S
H292   C296    0.750   .     S
C293   C295    1.360   .     S
C293   N299    1.360   .     D
C294   C295    1.360   .     S
C294   N300    1.360   .     D
C295   C296    1.500   .     S
C296   C298    1.390   .     S
C297   C298    1.390   .     D
N299   N300    1.360   .     S
N299   Fe73    2.091   1_655 S
N300   Fe75    2.139   1_655 S
Fe302  N576    2.091   .     S
Fe302  N594    2.091   .     S
Fe304  N1148   2.091   1_545 S
Fe304  N1166   2.091   1_545 S
H305   C308    0.750   .     S
H305   C309    0.750   .     S
C306   C308    1.360   .     S
C306   N312    1.360   .     D
C307   C3956   1.360   1_554 S
C307   N313    1.360   .     D
C308   C1523   1.360   .     S
C308   C309    1.500   .     S
C309   C311    1.390   .     S
C309   C1571   1.390   .     S
C310   C311    1.390   .     D
C310   C1570   1.390   .     S
N312   N1529   1.360   .     S
N312   Fe684   2.091   .     S
N313   N3960   1.360   1_554 S
N313   Fe378   2.139   .     S
H314   C317    0.750   .     S
H314   C318    0.750   .     S
C315   C317    1.360   .     S
C315   N321    1.360   .     D
C316   C3965   1.360   1_554 S
C316   N322    1.360   .     D
C317   C1532   1.360   .     S
C317   C318    1.500   .     S
C318   C320    1.390   .     S
C318   C1562   1.390   .     S
C319   C320    1.390   .     D
C319   C1561   1.390   .     S
N321   N1538   1.360   .     S
N321   Fe455   2.091   .     S
N322   N3969   1.360   1_554 S
N322   Fe453   2.139   .     S
H323   C326    0.750   .     S
H323   C327    0.750   .     S
C324   C326    1.360   .     S
C324   N330    1.360   .     D
C325   C326    1.360   .     S
C325   N331    1.360   .     D
C326   C327    1.500   .     S
C327   C329    1.390   .     S
C327   C373    1.390   .     S
C328   C329    1.390   .     D
C328   C372    1.390   .     S
N330   N331    1.360   .     S
N330   Fe684   2.091   .     S
N331   Fe378   2.139   .     S
H332   C335    0.750   .     S
H332   C336    0.750   .     S
C333   C335    1.360   .     S
C333   N339    1.360   .     D
C334   C335    1.360   .     S
C334   N340    1.360   .     D
C335   C336    1.500   .     S
C336   C338    1.390   .     S
C336   C364    1.390   .     S
C337   C338    1.390   .     D
C337   C363    1.390   .     S
N339   N340    1.360   .     S
N339   Fe379   2.091   .     S
N340   Fe377   2.139   .     S
H341   C344    0.750   .     S
H341   C345    0.750   .     S
C342   C344    1.360   .     S
C342   N348    1.360   .     D
C343   C1560   1.360   .     S
C343   N349    1.360   .     D
C344   C3991   1.360   1_554 S
C344   C345    1.500   .     S
C345   C347    1.390   .     S
C345   C3967   1.390   1_554 S
C346   C347    1.390   .     D
C346   C3966   1.390   1_554 S
N348   N3997   1.360   1_554 S
N349   N1564   1.360   .     S
N349   Fe380   2.139   .     S
H350   C353    0.750   .     S
H350   C354    0.750   .     S
C351   C353    1.360   .     S
C351   N357    1.360   .     D
C352   C1569   1.360   .     S
C352   N358    1.360   .     D
C353   C4000   1.360   1_554 S
C353   C354    1.500   .     S
C354   C356    1.390   .     S
C354   C3958   1.390   1_554 S
C355   C356    1.390   .     D
C355   C3957   1.390   1_554 S
N357   N4006   1.360   1_554 S
N357   Fe377   2.091   .     S
N358   N1573   1.360   .     S
N358   Fe379   2.139   .     S
H359   C362    0.750   .     S
H359   C363    0.750   .     S
C360   C362    1.360   .     S
C360   N366    1.360   .     D
C361   C362    1.360   .     S
C361   N367    1.360   .     D
C362   C363    1.500   .     S
C363   C365    1.390   .     S
C364   C365    1.390   .     D
N366   N367    1.360   .     S
N367   Fe380   2.139   .     S
H368   C371    0.750   .     S
H368   C372    0.750   .     S
C369   C371    1.360   .     S
C369   N375    1.360   .     D
C370   C371    1.360   .     S
C370   N376    1.360   .     D
C371   C372    1.500   .     S
C372   C374    1.390   .     S
C373   C374    1.390   .     D
N375   N376    1.360   .     S
N375   Fe453   2.091   .     S
N376   Fe455   2.139   .     S
Fe377  N603    2.091   1_455 S
Fe377  N550    2.139   1_455 S
Fe378  N652    2.091   .     S
Fe378  N670    2.091   .     S
Fe379  N549    2.091   1_455 S
Fe379  N604    2.139   1_455 S
H381   C384    0.750   .     S
H381   C385    0.750   .     S
C382   C384    1.360   .     S
C382   N388    1.360   .     D
C383   C4032   1.360   1_554 S
C383   N389    1.360   .     D
C384   C1599   1.360   .     S
C384   C385    1.500   .     S
C385   C387    1.390   .     S
C385   C1647   1.390   .     S
C386   C387    1.390   .     D
C386   C1646   1.390   .     S
N388   N1605   1.360   .     S
N388   Fe760   2.091   .     S
N389   N4036   1.360   1_554 S
N389   Fe454   2.139   .     S
H390   C393    0.750   .     S
H390   C394    0.750   .     S
C391   C393    1.360   .     S
C391   N397    1.360   .     D
C392   C4041   1.360   1_554 S
C392   N398    1.360   .     D
C393   C1608   1.360   .     S
C393   C394    1.500   .     S
C394   C396    1.390   .     S
C394   C1638   1.390   .     S
C395   C396    1.390   .     D
C395   C1637   1.390   .     S
N397   N1614   1.360   .     S
N397   Fe531   2.091   .     S
N398   N4045   1.360   1_554 S
N398   Fe529   2.139   .     S
H399   C402    0.750   .     S
H399   C403    0.750   .     S
C400   C402    1.360   .     S
C400   N406    1.360   .     D
C401   C402    1.360   .     S
C401   N407    1.360   .     D
C402   C403    1.500   .     S
C403   C405    1.390   .     S
C403   C449    1.390   .     S
C404   C405    1.390   .     D
C404   C448    1.390   .     S
N406   N407    1.360   .     S
N406   Fe760   2.091   .     S
N407   Fe454   2.139   .     S
H408   C411    0.750   .     S
H408   C412    0.750   .     S
C409   C411    1.360   .     S
C409   N415    1.360   .     D
C410   C411    1.360   .     S
C410   N416    1.360   .     D
C411   C412    1.500   .     S
C412   C414    1.390   .     S
C412   C440    1.390   .     S
C413   C414    1.390   .     D
C413   C439    1.390   .     S
N415   N416    1.360   .     S
N415   Fe455   2.091   .     S
N416   Fe453   2.139   .     S
H417   C420    0.750   .     S
H417   C421    0.750   .     S
C418   C420    1.360   .     S
C418   N424    1.360   .     D
C419   C1636   1.360   .     S
C419   N425    1.360   .     D
C420   C4067   1.360   1_554 S
C420   C421    1.500   .     S
C421   C423    1.390   .     S
C421   C4043   1.390   1_554 S
C422   C423    1.390   .     D
C422   C4042   1.390   1_554 S
N424   N4073   1.360   1_554 S
N425   N1640   1.360   .     S
N425   Fe456   2.139   .     S
H426   C429    0.750   .     S
H426   C430    0.750   .     S
C427   C429    1.360   .     S
C427   N433    1.360   .     D
C428   C1645   1.360   .     S
C428   N434    1.360   .     D
C429   C4076   1.360   1_554 S
C429   C430    1.500   .     S
C430   C432    1.390   .     S
C430   C4034   1.390   1_554 S
C431   C432    1.390   .     D
C431   C4033   1.390   1_554 S
N433   N4082   1.360   1_554 S
N433   Fe453   2.091   .     S
N434   N1649   1.360   .     S
N434   Fe455   2.139   .     S
H435   C438    0.750   .     S
H435   C439    0.750   .     S
C436   C438    1.360   .     S
C436   N442    1.360   .     D
C437   C438    1.360   .     S
C437   N443    1.360   .     D
C438   C439    1.500   .     S
C439   C441    1.390   .     S
C440   C441    1.390   .     D
N442   N443    1.360   .     S
N443   Fe456   2.139   .     S
H444   C447    0.750   .     S
H444   C448    0.750   .     S
C445   C447    1.360   .     S
C445   N451    1.360   .     D
C446   C447    1.360   .     S
C446   N452    1.360   .     D
C447   C448    1.500   .     S
C448   C450    1.390   .     S
C449   C450    1.390   .     D
N451   N452    1.360   .     S
N451   Fe529   2.091   .     S
N452   Fe531   2.139   .     S
Fe454  N728    2.091   .     S
Fe454  N746    2.091   .     S
H457   C460    0.750   .     S
H457   C461    0.750   .     S
C458   C460    1.360   .     S
C458   N464    1.360   .     D
C459   C4108   1.360   1_554 S
C459   N465    1.360   .     D
C460   C1675   1.360   .     S
C460   C461    1.500   .     S
C461   C463    1.390   .     S
C461   C1723   1.390   .     S
C462   C463    1.390   .     D
C462   C1722   1.390   .     S
N464   N1681   1.360   .     S
N464   Fe836   2.091   .     S
N465   N4112   1.360   1_554 S
N465   Fe530   2.139   .     S
H466   C469    0.750   .     S
H466   C470    0.750   .     S
C467   C469    1.360   .     S
C467   N473    1.360   .     D
C468   C4117   1.360   1_554 S
C468   N474    1.360   .     D
C469   C1684   1.360   .     S
C469   C470    1.500   .     S
C470   C472    1.390   .     S
C470   C1714   1.390   .     S
C471   C472    1.390   .     D
C471   C1713   1.390   .     S
N473   N1690   1.360   .     S
N473   Fe607   2.091   .     S
N474   N4121   1.360   1_554 S
N474   Fe605   2.139   .     S
H475   C478    0.750   .     S
H475   C479    0.750   .     S
C476   C478    1.360   .     S
C476   N482    1.360   .     D
C477   C478    1.360   .     S
C477   N483    1.360   .     D
C478   C479    1.500   .     S
C479   C481    1.390   .     S
C479   C525    1.390   .     S
C480   C481    1.390   .     D
C480   C524    1.390   .     S
N482   N483    1.360   .     S
N482   Fe836   2.091   .     S
N483   Fe530   2.139   .     S
H484   C487    0.750   .     S
H484   C488    0.750   .     S
C485   C487    1.360   .     S
C485   N491    1.360   .     D
C486   C487    1.360   .     S
C486   N492    1.360   .     D
C487   C488    1.500   .     S
C488   C490    1.390   .     S
C488   C516    1.390   .     S
C489   C490    1.390   .     D
C489   C515    1.390   .     S
N491   N492    1.360   .     S
N491   Fe531   2.091   .     S
N492   Fe529   2.139   .     S
H493   C496    0.750   .     S
H493   C497    0.750   .     S
C494   C496    1.360   .     S
C494   N500    1.360   .     D
C495   C1712   1.360   .     S
C495   N501    1.360   .     D
C496   C4143   1.360   1_554 S
C496   C497    1.500   .     S
C497   C499    1.390   .     S
C497   C4119   1.390   1_554 S
C498   C499    1.390   .     D
C498   C4118   1.390   1_554 S
N500   N4149   1.360   1_554 S
N501   N1716   1.360   .     S
N501   Fe532   2.139   .     S
H502   C505    0.750   .     S
H502   C506    0.750   .     S
C503   C505    1.360   .     S
C503   N509    1.360   .     D
C504   C1721   1.360   .     S
C504   N510    1.360   .     D
C505   C4152   1.360   1_554 S
C505   C506    1.500   .     S
C506   C508    1.390   .     S
C506   C4110   1.390   1_554 S
C507   C508    1.390   .     D
C507   C4109   1.390   1_554 S
N509   N4158   1.360   1_554 S
N509   Fe529   2.091   .     S
N510   N1725   1.360   .     S
N510   Fe531   2.139   .     S
H511   C514    0.750   .     S
H511   C515    0.750   .     S
C512   C514    1.360   .     S
C512   N518    1.360   .     D
C513   C514    1.360   .     S
C513   N519    1.360   .     D
C514   C515    1.500   .     S
C515   C517    1.390   .     S
C516   C517    1.390   .     D
N518   N519    1.360   .     S
N519   Fe532   2.139   .     S
H520   C523    0.750   .     S
H520   C524    0.750   .     S
C521   C523    1.360   .     S
C521   N527    1.360   .     D
C522   C523    1.360   .     S
C522   N528    1.360   .     D
C523   C524    1.500   .     S
C524   C526    1.390   .     S
C525   C526    1.390   .     D
N527   N528    1.360   .     S
N527   Fe605   2.091   .     S
N528   Fe607   2.139   .     S
Fe530  N804    2.091   .     S
Fe530  N822    2.091   .     S
H533   C536    0.750   .     S
H533   C537    0.750   .     S
C534   C536    1.360   .     S
C534   N540    1.360   .     D
C535   C4184   1.360   1_554 S
C535   N541    1.360   .     D
C536   C1751   1.360   .     S
C536   C537    1.500   .     S
C537   C539    1.390   .     S
C537   C1799   1.390   .     S
C538   C539    1.390   .     D
C538   C1798   1.390   .     S
N540   N1757   1.360   .     S
N540   Fe912   2.091   .     S
N541   N4188   1.360   1_554 S
N541   Fe606   2.139   .     S
H542   C545    0.750   .     S
H542   C546    0.750   .     S
C543   C545    1.360   .     S
C543   N549    1.360   .     D
C544   C4193   1.360   1_554 S
C544   N550    1.360   .     D
C545   C1760   1.360   .     S
C545   C546    1.500   .     S
C546   C548    1.390   .     S
C546   C1790   1.390   .     S
C547   C548    1.390   .     D
C547   C1789   1.390   .     S
N549   N1766   1.360   .     S
N549   Fe379   2.091   1_655 S
N550   N4197   1.360   1_554 S
N550   Fe377   2.139   1_655 S
H551   C554    0.750   .     S
H551   C555    0.750   .     S
C552   C554    1.360   .     S
C552   N558    1.360   .     D
C553   C554    1.360   .     S
C553   N559    1.360   .     D
C554   C555    1.500   .     S
C555   C557    1.390   .     S
C555   C601    1.390   .     S
C556   C557    1.390   .     D
C556   C600    1.390   .     S
N558   N559    1.360   .     S
N558   Fe912   2.091   .     S
N559   Fe606   2.139   .     S
H560   C563    0.750   .     S
H560   C564    0.750   .     S
C561   C563    1.360   .     S
C561   N567    1.360   .     D
C562   C563    1.360   .     S
C562   N568    1.360   .     D
C563   C564    1.500   .     S
C564   C566    1.390   .     S
C564   C592    1.390   .     S
C565   C566    1.390   .     D
C565   C591    1.390   .     S
N567   N568    1.360   .     S
N567   Fe607   2.091   .     S
N568   Fe605   2.139   .     S
H569   C572    0.750   .     S
H569   C573    0.750   .     S
C570   C572    1.360   .     S
C570   N576    1.360   .     D
C571   C1788   1.360   .     S
C571   N577    1.360   .     D
C572   C4219   1.360   1_554 S
C572   C573    1.500   .     S
C573   C575    1.390   .     S
C573   C4195   1.390   1_554 S
C574   C575    1.390   .     D
C574   C4194   1.390   1_554 S
N576   N4225   1.360   1_554 S
N577   N1792   1.360   .     S
N577   Fe608   2.139   .     S
H578   C581    0.750   .     S
H578   C582    0.750   .     S
C579   C581    1.360   .     S
C579   N585    1.360   .     D
C580   C1797   1.360   .     S
C580   N586    1.360   .     D
C581   C4228   1.360   1_554 S
C581   C582    1.500   .     S
C582   C584    1.390   .     S
C582   C4186   1.390   1_554 S
C583   C584    1.390   .     D
C583   C4185   1.390   1_554 S
N585   N4234   1.360   1_554 S
N585   Fe605   2.091   .     S
N586   N1801   1.360   .     S
N586   Fe607   2.139   .     S
H587   C590    0.750   .     S
H587   C591    0.750   .     S
C588   C590    1.360   .     S
C588   N594    1.360   .     D
C589   C590    1.360   .     S
C589   N595    1.360   .     D
C590   C591    1.500   .     S
C591   C593    1.390   .     S
C592   C593    1.390   .     D
N594   N595    1.360   .     S
N595   Fe608   2.139   .     S
H596   C599    0.750   .     S
H596   C600    0.750   .     S
C597   C599    1.360   .     S
C597   N603    1.360   .     D
C598   C599    1.360   .     S
C598   N604    1.360   .     D
C599   C600    1.500   .     S
C600   C602    1.390   .     S
C601   C602    1.390   .     D
N603   N604    1.360   .     S
N603   Fe377   2.091   1_655 S
N604   Fe379   2.139   1_655 S
Fe606  N880    2.091   .     S
Fe606  N898    2.091   .     S
H609   C612    0.750   .     S
H609   C613    0.750   .     S
C610   C612    1.360   .     S
C610   N616    1.360   .     D
C611   C4260   1.360   1_554 S
C611   N617    1.360   .     D
C612   C1827   1.360   .     S
C612   C613    1.500   .     S
C613   C615    1.390   .     S
C613   C1875   1.390   .     S
C614   C615    1.390   .     D
C614   C1874   1.390   .     S
N616   N1833   1.360   .     S
N616   Fe988   2.091   .     S
N617   N4264   1.360   1_554 S
N617   Fe682   2.139   .     S
H618   C621    0.750   .     S
H618   C622    0.750   .     S
C619   C621    1.360   .     S
C619   N625    1.360   .     D
C620   C4269   1.360   1_554 S
C620   N626    1.360   .     D
C621   C1836   1.360   .     S
C621   C622    1.500   .     S
C622   C624    1.390   .     S
C622   C1866   1.390   .     S
C623   C624    1.390   .     D
C623   C1865   1.390   .     S
N625   N1842   1.360   .     S
N625   Fe759   2.091   .     S
N626   N4273   1.360   1_554 S
N626   Fe757   2.139   .     S
H627   C630    0.750   .     S
H627   C631    0.750   .     S
C628   C630    1.360   .     S
C628   N634    1.360   .     D
C629   C630    1.360   .     S
C629   N635    1.360   .     D
C630   C631    1.500   .     S
C631   C633    1.390   .     S
C631   C677    1.390   .     S
C632   C633    1.390   .     D
C632   C676    1.390   .     S
N634   N635    1.360   .     S
N634   Fe988   2.091   .     S
N635   Fe682   2.139   .     S
H636   C639    0.750   .     S
H636   C640    0.750   .     S
C637   C639    1.360   .     S
C637   N643    1.360   .     D
C638   C639    1.360   .     S
C638   N644    1.360   .     D
C639   C640    1.500   .     S
C640   C642    1.390   .     S
C640   C668    1.390   .     S
C641   C642    1.390   .     D
C641   C667    1.390   .     S
N643   N644    1.360   .     S
N643   Fe683   2.091   .     S
N644   Fe681   2.139   .     S
H645   C648    0.750   .     S
H645   C649    0.750   .     S
C646   C648    1.360   .     S
C646   N652    1.360   .     D
C647   C1864   1.360   .     S
C647   N653    1.360   .     D
C648   C4295   1.360   1_554 S
C648   C649    1.500   .     S
C649   C651    1.390   .     S
C649   C4271   1.390   1_554 S
C650   C651    1.390   .     D
C650   C4270   1.390   1_554 S
N652   N4301   1.360   1_554 S
N653   N1868   1.360   .     S
N653   Fe684   2.139   .     S
H654   C657    0.750   .     S
H654   C658    0.750   .     S
C655   C657    1.360   .     S
C655   N661    1.360   .     D
C656   C1873   1.360   .     S
C656   N662    1.360   .     D
C657   C4304   1.360   1_554 S
C657   C658    1.500   .     S
C658   C660    1.390   .     S
C658   C4262   1.390   1_554 S
C659   C660    1.390   .     D
C659   C4261   1.390   1_554 S
N661   N4310   1.360   1_554 S
N661   Fe681   2.091   .     S
N662   N1877   1.360   .     S
N662   Fe683   2.139   .     S
H663   C666    0.750   .     S
H663   C667    0.750   .     S
C664   C666    1.360   .     S
C664   N670    1.360   .     D
C665   C666    1.360   .     S
C665   N671    1.360   .     D
C666   C667    1.500   .     S
C667   C669    1.390   .     S
C668   C669    1.390   .     D
N670   N671    1.360   .     S
N671   Fe684   2.139   .     S
H672   C675    0.750   .     S
H672   C676    0.750   .     S
C673   C675    1.360   .     S
C673   N679    1.360   .     D
C674   C675    1.360   .     S
C674   N680    1.360   .     D
C675   C676    1.500   .     S
C676   C678    1.390   .     S
C677   C678    1.390   .     D
N679   N680    1.360   .     S
N679   Fe757   2.091   .     S
N680   Fe759   2.139   .     S
Fe681  N907    2.091   1_455 S
Fe681  N854    2.139   1_455 S
Fe682  N956    2.091   .     S
Fe682  N974    2.091   .     S
Fe683  N853    2.091   1_455 S
Fe683  N908    2.139   1_455 S
H685   C688    0.750   .     S
H685   C689    0.750   .     S
C686   C688    1.360   .     S
C686   N692    1.360   .     D
C687   C4336   1.360   1_554 S
C687   N693    1.360   .     D
C688   C1903   1.360   .     S
C688   C689    1.500   .     S
C689   C691    1.390   .     S
C689   C1951   1.390   .     S
C690   C691    1.390   .     D
C690   C1950   1.390   .     S
N692   N1909   1.360   .     S
N692   Fe1064  2.091   .     S
N693   N4340   1.360   1_554 S
N693   Fe758   2.139   .     S
H694   C697    0.750   .     S
H694   C698    0.750   .     S
C695   C697    1.360   .     S
C695   N701    1.360   .     D
C696   C4345   1.360   1_554 S
C696   N702    1.360   .     D
C697   C1912   1.360   .     S
C697   C698    1.500   .     S
C698   C700    1.390   .     S
C698   C1942   1.390   .     S
C699   C700    1.390   .     D
C699   C1941   1.390   .     S
N701   N1918   1.360   .     S
N701   Fe835   2.091   .     S
N702   N4349   1.360   1_554 S
N702   Fe833   2.139   .     S
H703   C706    0.750   .     S
H703   C707    0.750   .     S
C704   C706    1.360   .     S
C704   N710    1.360   .     D
C705   C706    1.360   .     S
C705   N711    1.360   .     D
C706   C707    1.500   .     S
C707   C709    1.390   .     S
C707   C753    1.390   .     S
C708   C709    1.390   .     D
C708   C752    1.390   .     S
N710   N711    1.360   .     S
N710   Fe1064  2.091   .     S
N711   Fe758   2.139   .     S
H712   C715    0.750   .     S
H712   C716    0.750   .     S
C713   C715    1.360   .     S
C713   N719    1.360   .     D
C714   C715    1.360   .     S
C714   N720    1.360   .     D
C715   C716    1.500   .     S
C716   C718    1.390   .     S
C716   C744    1.390   .     S
C717   C718    1.390   .     D
C717   C743    1.390   .     S
N719   N720    1.360   .     S
N719   Fe759   2.091   .     S
N720   Fe757   2.139   .     S
H721   C724    0.750   .     S
H721   C725    0.750   .     S
C722   C724    1.360   .     S
C722   N728    1.360   .     D
C723   C1940   1.360   .     S
C723   N729    1.360   .     D
C724   C4371   1.360   1_554 S
C724   C725    1.500   .     S
C725   C727    1.390   .     S
C725   C4347   1.390   1_554 S
C726   C727    1.390   .     D
C726   C4346   1.390   1_554 S
N728   N4377   1.360   1_554 S
N729   N1944   1.360   .     S
N729   Fe760   2.139   .     S
H730   C733    0.750   .     S
H730   C734    0.750   .     S
C731   C733    1.360   .     S
C731   N737    1.360   .     D
C732   C1949   1.360   .     S
C732   N738    1.360   .     D
C733   C4380   1.360   1_554 S
C733   C734    1.500   .     S
C734   C736    1.390   .     S
C734   C4338   1.390   1_554 S
C735   C736    1.390   .     D
C735   C4337   1.390   1_554 S
N737   N4386   1.360   1_554 S
N737   Fe757   2.091   .     S
N738   N1953   1.360   .     S
N738   Fe759   2.139   .     S
H739   C742    0.750   .     S
H739   C743    0.750   .     S
C740   C742    1.360   .     S
C740   N746    1.360   .     D
C741   C742    1.360   .     S
C741   N747    1.360   .     D
C742   C743    1.500   .     S
C743   C745    1.390   .     S
C744   C745    1.390   .     D
N746   N747    1.360   .     S
N747   Fe760   2.139   .     S
H748   C751    0.750   .     S
H748   C752    0.750   .     S
C749   C751    1.360   .     S
C749   N755    1.360   .     D
C750   C751    1.360   .     S
C750   N756    1.360   .     D
C751   C752    1.500   .     S
C752   C754    1.390   .     S
C753   C754    1.390   .     D
N755   N756    1.360   .     S
N755   Fe833   2.091   .     S
N756   Fe835   2.139   .     S
Fe758  N1032   2.091   .     S
Fe758  N1050   2.091   .     S
H761   C764    0.750   .     S
H761   C765    0.750   .     S
C762   C764    1.360   .     S
C762   N768    1.360   .     D
C763   C4412   1.360   1_554 S
C763   N769    1.360   .     D
C764   C1979   1.360   .     S
C764   C765    1.500   .     S
C765   C767    1.390   .     S
C765   C2027   1.390   .     S
C766   C767    1.390   .     D
C766   C2026   1.390   .     S
N768   N1985   1.360   .     S
N768   Fe1140  2.091   .     S
N769   N4416   1.360   1_554 S
N769   Fe834   2.139   .     S
H770   C773    0.750   .     S
H770   C774    0.750   .     S
C771   C773    1.360   .     S
C771   N777    1.360   .     D
C772   C4421   1.360   1_554 S
C772   N778    1.360   .     D
C773   C1988   1.360   .     S
C773   C774    1.500   .     S
C774   C776    1.390   .     S
C774   C2018   1.390   .     S
C775   C776    1.390   .     D
C775   C2017   1.390   .     S
N777   N1994   1.360   .     S
N777   Fe911   2.091   .     S
N778   N4425   1.360   1_554 S
N778   Fe909   2.139   .     S
H779   C782    0.750   .     S
H779   C783    0.750   .     S
C780   C782    1.360   .     S
C780   N786    1.360   .     D
C781   C782    1.360   .     S
C781   N787    1.360   .     D
C782   C783    1.500   .     S
C783   C785    1.390   .     S
C783   C829    1.390   .     S
C784   C785    1.390   .     D
C784   C828    1.390   .     S
N786   N787    1.360   .     S
N786   Fe1140  2.091   .     S
N787   Fe834   2.139   .     S
H788   C791    0.750   .     S
H788   C792    0.750   .     S
C789   C791    1.360   .     S
C789   N795    1.360   .     D
C790   C791    1.360   .     S
C790   N796    1.360   .     D
C791   C792    1.500   .     S
C792   C794    1.390   .     S
C792   C820    1.390   .     S
C793   C794    1.390   .     D
C793   C819    1.390   .     S
N795   N796    1.360   .     S
N795   Fe835   2.091   .     S
N796   Fe833   2.139   .     S
H797   C800    0.750   .     S
H797   C801    0.750   .     S
C798   C800    1.360   .     S
C798   N804    1.360   .     D
C799   C2016   1.360   .     S
C799   N805    1.360   .     D
C800   C4447   1.360   1_554 S
C800   C801    1.500   .     S
C801   C803    1.390   .     S
C801   C4423   1.390   1_554 S
C802   C803    1.390   .     D
C802   C4422   1.390   1_554 S
N804   N4453   1.360   1_554 S
N805   N2020   1.360   .     S
N805   Fe836   2.139   .     S
H806   C809    0.750   .     S
H806   C810    0.750   .     S
C807   C809    1.360   .     S
C807   N813    1.360   .     D
C808   C2025   1.360   .     S
C808   N814    1.360   .     D
C809   C4456   1.360   1_554 S
C809   C810    1.500   .     S
C810   C812    1.390   .     S
C810   C4414   1.390   1_554 S
C811   C812    1.390   .     D
C811   C4413   1.390   1_554 S
N813   N4462   1.360   1_554 S
N813   Fe833   2.091   .     S
N814   N2029   1.360   .     S
N814   Fe835   2.139   .     S
H815   C818    0.750   .     S
H815   C819    0.750   .     S
C816   C818    1.360   .     S
C816   N822    1.360   .     D
C817   C818    1.360   .     S
C817   N823    1.360   .     D
C818   C819    1.500   .     S
C819   C821    1.390   .     S
C820   C821    1.390   .     D
N822   N823    1.360   .     S
N823   Fe836   2.139   .     S
H824   C827    0.750   .     S
H824   C828    0.750   .     S
C825   C827    1.360   .     S
C825   N831    1.360   .     D
C826   C827    1.360   .     S
C826   N832    1.360   .     D
C827   C828    1.500   .     S
C828   C830    1.390   .     S
C829   C830    1.390   .     D
N831   N832    1.360   .     S
N831   Fe909   2.091   .     S
N832   Fe911   2.139   .     S
Fe834  N1108   2.091   .     S
Fe834  N1126   2.091   .     S
H837   C840    0.750   .     S
H837   C841    0.750   .     S
C838   C840    1.360   .     S
C838   N844    1.360   .     D
C839   C4488   1.360   1_554 S
C839   N845    1.360   .     D
C840   C2055   1.360   .     S
C840   C841    1.500   .     S
C841   C843    1.390   .     S
C841   C2103   1.390   .     S
C842   C843    1.390   .     D
C842   C2102   1.390   .     S
N844   N2061   1.360   .     S
N844   Fe1216  2.091   .     S
N845   N4492   1.360   1_554 S
N845   Fe910   2.139   .     S
H846   C849    0.750   .     S
H846   C850    0.750   .     S
C847   C849    1.360   .     S
C847   N853    1.360   .     D
C848   C4497   1.360   1_554 S
C848   N854    1.360   .     D
C849   C2064   1.360   .     S
C849   C850    1.500   .     S
C850   C852    1.390   .     S
C850   C2094   1.390   .     S
C851   C852    1.390   .     D
C851   C2093   1.390   .     S
N853   N2070   1.360   .     S
N853   Fe683   2.091   1_655 S
N854   N4501   1.360   1_554 S
N854   Fe681   2.139   1_655 S
H855   C858    0.750   .     S
H855   C859    0.750   .     S
C856   C858    1.360   .     S
C856   N862    1.360   .     D
C857   C858    1.360   .     S
C857   N863    1.360   .     D
C858   C859    1.500   .     S
C859   C861    1.390   .     S
C859   C905    1.390   .     S
C860   C861    1.390   .     D
C860   C904    1.390   .     S
N862   N863    1.360   .     S
N862   Fe1216  2.091   .     S
N863   Fe910   2.139   .     S
H864   C867    0.750   .     S
H864   C868    0.750   .     S
C865   C867    1.360   .     S
C865   N871    1.360   .     D
C866   C867    1.360   .     S
C866   N872    1.360   .     D
C867   C868    1.500   .     S
C868   C870    1.390   .     S
C868   C896    1.390   .     S
C869   C870    1.390   .     D
C869   C895    1.390   .     S
N871   N872    1.360   .     S
N871   Fe911   2.091   .     S
N872   Fe909   2.139   .     S
H873   C876    0.750   .     S
H873   C877    0.750   .     S
C874   C876    1.360   .     S
C874   N880    1.360   .     D
C875   C2092   1.360   .     S
C875   N881    1.360   .     D
C876   C4523   1.360   1_554 S
C876   C877    1.500   .     S
C877   C879    1.390   .     S
C877   C4499   1.390   1_554 S
C878   C879    1.390   .     D
C878   C4498   1.390   1_554 S
N880   N4529   1.360   1_554 S
N881   N2096   1.360   .     S
N881   Fe912   2.139   .     S
H882   C885    0.750   .     S
H882   C886    0.750   .     S
C883   C885    1.360   .     S
C883   N889    1.360   .     D
C884   C2101   1.360   .     S
C884   N890    1.360   .     D
C885   C4532   1.360   1_554 S
C885   C886    1.500   .     S
C886   C888    1.390   .     S
C886   C4490   1.390   1_554 S
C887   C888    1.390   .     D
C887   C4489   1.390   1_554 S
N889   N4538   1.360   1_554 S
N889   Fe909   2.091   .     S
N890   N2105   1.360   .     S
N890   Fe911   2.139   .     S
H891   C894    0.750   .     S
H891   C895    0.750   .     S
C892   C894    1.360   .     S
C892   N898    1.360   .     D
C893   C894    1.360   .     S
C893   N899    1.360   .     D
C894   C895    1.500   .     S
C895   C897    1.390   .     S
C896   C897    1.390   .     D
N898   N899    1.360   .     S
N899   Fe912   2.139   .     S
H900   C903    0.750   .     S
H900   C904    0.750   .     S
C901   C903    1.360   .     S
C901   N907    1.360   .     D
C902   C903    1.360   .     S
C902   N908    1.360   .     D
C903   C904    1.500   .     S
C904   C906    1.390   .     S
C905   C906    1.390   .     D
N907   N908    1.360   .     S
N907   Fe681   2.091   1_655 S
N908   Fe683   2.139   1_655 S
Fe910  N1184   2.091   .     S
Fe910  N1202   2.091   .     S
H913   C916    0.750   .     S
H913   C917    0.750   .     S
C914   C916    1.360   .     S
C914   N920    1.360   .     D
C915   C4564   1.360   1_554 S
C915   N921    1.360   .     D
C916   C2131   1.360   .     S
C916   C917    1.500   .     S
C917   C919    1.390   .     S
C917   C2179   1.390   .     S
C918   C919    1.390   .     D
C918   C2178   1.390   .     S
N920   N2137   1.360   .     S
N920   Fe76    2.091   1_565 S
N921   N4568   1.360   1_554 S
N921   Fe986   2.139   .     S
H922   C925    0.750   .     S
H922   C926    0.750   .     S
C923   C925    1.360   .     S
C923   N929    1.360   .     D
C924   C4573   1.360   1_554 S
C924   N930    1.360   .     D
C925   C2140   1.360   .     S
C925   C926    1.500   .     S
C926   C928    1.390   .     S
C926   C2170   1.390   .     S
C927   C928    1.390   .     D
C927   C2169   1.390   .     S
N929   N2146   1.360   .     S
N929   Fe1063  2.091   .     S
N930   N4577   1.360   1_554 S
N930   Fe1061  2.139   .     S
H931   C934    0.750   .     S
H931   C935    0.750   .     S
C932   C934    1.360   .     S
C932   N938    1.360   .     D
C933   C934    1.360   .     S
C933   N939    1.360   .     D
C934   C935    1.500   .     S
C935   C937    1.390   .     S
C935   C981    1.390   .     S
C936   C937    1.390   .     D
C936   C980    1.390   .     S
N938   N939    1.360   .     S
N938   Fe76    2.091   1_565 S
N939   Fe986   2.139   .     S
H940   C943    0.750   .     S
H940   C944    0.750   .     S
C941   C943    1.360   .     S
C941   N947    1.360   .     D
C942   C943    1.360   .     S
C942   N948    1.360   .     D
C943   C944    1.500   .     S
C944   C946    1.390   .     S
C944   C972    1.390   .     S
C945   C946    1.390   .     D
C945   C971    1.390   .     S
N947   N948    1.360   .     S
N947   Fe987   2.091   .     S
N948   Fe985   2.139   .     S
H949   C952    0.750   .     S
H949   C953    0.750   .     S
C950   C952    1.360   .     S
C950   N956    1.360   .     D
C951   C2168   1.360   .     S
C951   N957    1.360   .     D
C952   C4599   1.360   1_554 S
C952   C953    1.500   .     S
C953   C955    1.390   .     S
C953   C4575   1.390   1_554 S
C954   C955    1.390   .     D
C954   C4574   1.390   1_554 S
N956   N4605   1.360   1_554 S
N957   N2172   1.360   .     S
N957   Fe988   2.139   .     S
H958   C961    0.750   .     S
H958   C962    0.750   .     S
C959   C961    1.360   .     S
C959   N965    1.360   .     D
C960   C2177   1.360   .     S
C960   N966    1.360   .     D
C961   C4608   1.360   1_554 S
C961   C962    1.500   .     S
C962   C964    1.390   .     S
C962   C4566   1.390   1_554 S
C963   C964    1.390   .     D
C963   C4565   1.390   1_554 S
N965   N4614   1.360   1_554 S
N965   Fe985   2.091   .     S
N966   N2181   1.360   .     S
N966   Fe987   2.139   .     S
H967   C970    0.750   .     S
H967   C971    0.750   .     S
C968   C970    1.360   .     S
C968   N974    1.360   .     D
C969   C970    1.360   .     S
C969   N975    1.360   .     D
C970   C971    1.500   .     S
C971   C973    1.390   .     S
C972   C973    1.390   .     D
N974   N975    1.360   .     S
N975   Fe988   2.139   .     S
H976   C979    0.750   .     S
H976   C980    0.750   .     S
C977   C979    1.360   .     S
C977   N983    1.360   .     D
C978   C979    1.360   .     S
C978   N984    1.360   .     D
C979   C980    1.500   .     S
C980   C982    1.390   .     S
C981   C982    1.390   .     D
N983   N984    1.360   .     S
N983   Fe1061  2.091   .     S
N984   Fe1063  2.139   .     S
Fe985  N1211   2.091   1_455 S
Fe985  N1158   2.139   1_455 S
Fe986  N44     2.091   1_565 S
Fe986  N62     2.091   1_565 S
Fe987  N1157   2.091   1_455 S
Fe987  N1212   2.139   1_455 S
H989   C992    0.750   .     S
H989   C993    0.750   .     S
C990   C992    1.360   .     S
C990   N996    1.360   .     D
C991   C4640   1.360   1_554 S
C991   N997    1.360   .     D
C992   C2207   1.360   .     S
C992   C993    1.500   .     S
C993   C995    1.390   .     S
C993   C2255   1.390   .     S
C994   C995    1.390   .     D
C994   C2254   1.390   .     S
N996   N2213   1.360   .     S
N996   Fe152   2.091   1_565 S
N997   N4644   1.360   1_554 S
N997   Fe1062  2.139   .     S
H998   C1001   0.750   .     S
H998   C1002   0.750   .     S
C999   C1001   1.360   .     S
C999   N1005   1.360   .     D
C1000  C4649   1.360   1_554 S
C1000  N1006   1.360   .     D
C1001  C2216   1.360   .     S
C1001  C1002   1.500   .     S
C1002  C1004   1.390   .     S
C1002  C2246   1.390   .     S
C1003  C1004   1.390   .     D
C1003  C2245   1.390   .     S
N1005  N2222   1.360   .     S
N1005  Fe1139  2.091   .     S
N1006  N4653   1.360   1_554 S
N1006  Fe1137  2.139   .     S
H1007  C1010   0.750   .     S
H1007  C1011   0.750   .     S
C1008  C1010   1.360   .     S
C1008  N1014   1.360   .     D
C1009  C1010   1.360   .     S
C1009  N1015   1.360   .     D
C1010  C1011   1.500   .     S
C1011  C1013   1.390   .     S
C1011  C1057   1.390   .     S
C1012  C1013   1.390   .     D
C1012  C1056   1.390   .     S
N1014  N1015   1.360   .     S
N1014  Fe152   2.091   1_565 S
N1015  Fe1062  2.139   .     S
H1016  C1019   0.750   .     S
H1016  C1020   0.750   .     S
C1017  C1019   1.360   .     S
C1017  N1023   1.360   .     D
C1018  C1019   1.360   .     S
C1018  N1024   1.360   .     D
C1019  C1020   1.500   .     S
C1020  C1022   1.390   .     S
C1020  C1048   1.390   .     S
C1021  C1022   1.390   .     D
C1021  C1047   1.390   .     S
N1023  N1024   1.360   .     S
N1023  Fe1063  2.091   .     S
N1024  Fe1061  2.139   .     S
H1025  C1028   0.750   .     S
H1025  C1029   0.750   .     S
C1026  C1028   1.360   .     S
C1026  N1032   1.360   .     D
C1027  C2244   1.360   .     S
C1027  N1033   1.360   .     D
C1028  C4675   1.360   1_554 S
C1028  C1029   1.500   .     S
C1029  C1031   1.390   .     S
C1029  C4651   1.390   1_554 S
C1030  C1031   1.390   .     D
C1030  C4650   1.390   1_554 S
N1032  N4681   1.360   1_554 S
N1033  N2248   1.360   .     S
N1033  Fe1064  2.139   .     S
H1034  C1037   0.750   .     S
H1034  C1038   0.750   .     S
C1035  C1037   1.360   .     S
C1035  N1041   1.360   .     D
C1036  C2253   1.360   .     S
C1036  N1042   1.360   .     D
C1037  C4684   1.360   1_554 S
C1037  C1038   1.500   .     S
C1038  C1040   1.390   .     S
C1038  C4642   1.390   1_554 S
C1039  C1040   1.390   .     D
C1039  C4641   1.390   1_554 S
N1041  N4690   1.360   1_554 S
N1041  Fe1061  2.091   .     S
N1042  N2257   1.360   .     S
N1042  Fe1063  2.139   .     S
H1043  C1046   0.750   .     S
H1043  C1047   0.750   .     S
C1044  C1046   1.360   .     S
C1044  N1050   1.360   .     D
C1045  C1046   1.360   .     S
C1045  N1051   1.360   .     D
C1046  C1047   1.500   .     S
C1047  C1049   1.390   .     S
C1048  C1049   1.390   .     D
N1050  N1051   1.360   .     S
N1051  Fe1064  2.139   .     S
H1052  C1055   0.750   .     S
H1052  C1056   0.750   .     S
C1053  C1055   1.360   .     S
C1053  N1059   1.360   .     D
C1054  C1055   1.360   .     S
C1054  N1060   1.360   .     D
C1055  C1056   1.500   .     S
C1056  C1058   1.390   .     S
C1057  C1058   1.390   .     D
N1059  N1060   1.360   .     S
N1059  Fe1137  2.091   .     S
N1060  Fe1139  2.139   .     S
Fe1062 N120    2.091   1_565 S
Fe1062 N138    2.091   1_565 S
H1065  C1068   0.750   .     S
H1065  C1069   0.750   .     S
C1066  C1068   1.360   .     S
C1066  N1072   1.360   .     D
C1067  C4716   1.360   1_554 S
C1067  N1073   1.360   .     D
C1068  C2283   1.360   .     S
C1068  C1069   1.500   .     S
C1069  C1071   1.390   .     S
C1069  C2331   1.390   .     S
C1070  C1071   1.390   .     D
C1070  C2330   1.390   .     S
N1072  N2289   1.360   .     S
N1072  Fe228   2.091   1_565 S
N1073  N4720   1.360   1_554 S
N1073  Fe1138  2.139   .     S
H1074  C1077   0.750   .     S
H1074  C1078   0.750   .     S
C1075  C1077   1.360   .     S
C1075  N1081   1.360   .     D
C1076  C4725   1.360   1_554 S
C1076  N1082   1.360   .     D
C1077  C2292   1.360   .     S
C1077  C1078   1.500   .     S
C1078  C1080   1.390   .     S
C1078  C2322   1.390   .     S
C1079  C1080   1.390   .     D
C1079  C2321   1.390   .     S
N1081  N2298   1.360   .     S
N1081  Fe1215  2.091   .     S
N1082  N4729   1.360   1_554 S
N1082  Fe1213  2.139   .     S
H1083  C1086   0.750   .     S
H1083  C1087   0.750   .     S
C1084  C1086   1.360   .     S
C1084  N1090   1.360   .     D
C1085  C1086   1.360   .     S
C1085  N1091   1.360   .     D
C1086  C1087   1.500   .     S
C1087  C1089   1.390   .     S
C1087  C1133   1.390   .     S
C1088  C1089   1.390   .     D
C1088  C1132   1.390   .     S
N1090  N1091   1.360   .     S
N1090  Fe228   2.091   1_565 S
N1091  Fe1138  2.139   .     S
H1092  C1095   0.750   .     S
H1092  C1096   0.750   .     S
C1093  C1095   1.360   .     S
C1093  N1099   1.360   .     D
C1094  C1095   1.360   .     S
C1094  N1100   1.360   .     D
C1095  C1096   1.500   .     S
C1096  C1098   1.390   .     S
C1096  C1124   1.390   .     S
C1097  C1098   1.390   .     D
C1097  C1123   1.390   .     S
N1099  N1100   1.360   .     S
N1099  Fe1139  2.091   .     S
N1100  Fe1137  2.139   .     S
H1101  C1104   0.750   .     S
H1101  C1105   0.750   .     S
C1102  C1104   1.360   .     S
C1102  N1108   1.360   .     D
C1103  C2320   1.360   .     S
C1103  N1109   1.360   .     D
C1104  C4751   1.360   1_554 S
C1104  C1105   1.500   .     S
C1105  C1107   1.390   .     S
C1105  C4727   1.390   1_554 S
C1106  C1107   1.390   .     D
C1106  C4726   1.390   1_554 S
N1108  N4757   1.360   1_554 S
N1109  N2324   1.360   .     S
N1109  Fe1140  2.139   .     S
H1110  C1113   0.750   .     S
H1110  C1114   0.750   .     S
C1111  C1113   1.360   .     S
C1111  N1117   1.360   .     D
C1112  C2329   1.360   .     S
C1112  N1118   1.360   .     D
C1113  C4760   1.360   1_554 S
C1113  C1114   1.500   .     S
C1114  C1116   1.390   .     S
C1114  C4718   1.390   1_554 S
C1115  C1116   1.390   .     D
C1115  C4717   1.390   1_554 S
N1117  N4766   1.360   1_554 S
N1117  Fe1137  2.091   .     S
N1118  N2333   1.360   .     S
N1118  Fe1139  2.139   .     S
H1119  C1122   0.750   .     S
H1119  C1123   0.750   .     S
C1120  C1122   1.360   .     S
C1120  N1126   1.360   .     D
C1121  C1122   1.360   .     S
C1121  N1127   1.360   .     D
C1122  C1123   1.500   .     S
C1123  C1125   1.390   .     S
C1124  C1125   1.390   .     D
N1126  N1127   1.360   .     S
N1127  Fe1140  2.139   .     S
H1128  C1131   0.750   .     S
H1128  C1132   0.750   .     S
C1129  C1131   1.360   .     S
C1129  N1135   1.360   .     D
C1130  C1131   1.360   .     S
C1130  N1136   1.360   .     D
C1131  C1132   1.500   .     S
C1132  C1134   1.390   .     S
C1133  C1134   1.390   .     D
N1135  N1136   1.360   .     S
N1135  Fe1213  2.091   .     S
N1136  Fe1215  2.139   .     S
Fe1138 N196    2.091   1_565 S
Fe1138 N214    2.091   1_565 S
H1141  C1144   0.750   .     S
H1141  C1145   0.750   .     S
C1142  C1144   1.360   .     S
C1142  N1148   1.360   .     D
C1143  C4792   1.360   1_554 S
C1143  N1149   1.360   .     D
C1144  C2359   1.360   .     S
C1144  C1145   1.500   .     S
C1145  C1147   1.390   .     S
C1145  C2407   1.390   .     S
C1146  C1147   1.390   .     D
C1146  C2406   1.390   .     S
N1148  N2365   1.360   .     S
N1148  Fe304   2.091   1_565 S
N1149  N4796   1.360   1_554 S
N1149  Fe1214  2.139   .     S
H1150  C1153   0.750   .     S
H1150  C1154   0.750   .     S
C1151  C1153   1.360   .     S
C1151  N1157   1.360   .     D
C1152  C4801   1.360   1_554 S
C1152  N1158   1.360   .     D
C1153  C2368   1.360   .     S
C1153  C1154   1.500   .     S
C1154  C1156   1.390   .     S
C1154  C2398   1.390   .     S
C1155  C1156   1.390   .     D
C1155  C2397   1.390   .     S
N1157  N2374   1.360   .     S
N1157  Fe987   2.091   1_655 S
N1158  N4805   1.360   1_554 S
N1158  Fe985   2.139   1_655 S
H1159  C1162   0.750   .     S
H1159  C1163   0.750   .     S
C1160  C1162   1.360   .     S
C1160  N1166   1.360   .     D
C1161  C1162   1.360   .     S
C1161  N1167   1.360   .     D
C1162  C1163   1.500   .     S
C1163  C1165   1.390   .     S
C1163  C1209   1.390   .     S
C1164  C1165   1.390   .     D
C1164  C1208   1.390   .     S
N1166  N1167   1.360   .     S
N1166  Fe304   2.091   1_565 S
N1167  Fe1214  2.139   .     S
H1168  C1171   0.750   .     S
H1168  C1172   0.750   .     S
C1169  C1171   1.360   .     S
C1169  N1175   1.360   .     D
C1170  C1171   1.360   .     S
C1170  N1176   1.360   .     D
C1171  C1172   1.500   .     S
C1172  C1174   1.390   .     S
C1172  C1200   1.390   .     S
C1173  C1174   1.390   .     D
C1173  C1199   1.390   .     S
N1175  N1176   1.360   .     S
N1175  Fe1215  2.091   .     S
N1176  Fe1213  2.139   .     S
H1177  C1180   0.750   .     S
H1177  C1181   0.750   .     S
C1178  C1180   1.360   .     S
C1178  N1184   1.360   .     D
C1179  C2396   1.360   .     S
C1179  N1185   1.360   .     D
C1180  C4827   1.360   1_554 S
C1180  C1181   1.500   .     S
C1181  C1183   1.390   .     S
C1181  C4803   1.390   1_554 S
C1182  C1183   1.390   .     D
C1182  C4802   1.390   1_554 S
N1184  N4833   1.360   1_554 S
N1185  N2400   1.360   .     S
N1185  Fe1216  2.139   .     S
H1186  C1189   0.750   .     S
H1186  C1190   0.750   .     S
C1187  C1189   1.360   .     S
C1187  N1193   1.360   .     D
C1188  C2405   1.360   .     S
C1188  N1194   1.360   .     D
C1189  C4836   1.360   1_554 S
C1189  C1190   1.500   .     S
C1190  C1192   1.390   .     S
C1190  C4794   1.390   1_554 S
C1191  C1192   1.390   .     D
C1191  C4793   1.390   1_554 S
N1193  N4842   1.360   1_554 S
N1193  Fe1213  2.091   .     S
N1194  N2409   1.360   .     S
N1194  Fe1215  2.139   .     S
H1195  C1198   0.750   .     S
H1195  C1199   0.750   .     S
C1196  C1198   1.360   .     S
C1196  N1202   1.360   .     D
C1197  C1198   1.360   .     S
C1197  N1203   1.360   .     D
C1198  C1199   1.500   .     S
C1199  C1201   1.390   .     S
C1200  C1201   1.390   .     D
N1202  N1203   1.360   .     S
N1203  Fe1216  2.139   .     S
H1204  C1207   0.750   .     S
H1204  C1208   0.750   .     S
C1205  C1207   1.360   .     S
C1205  N1211   1.360   .     D
C1206  C1207   1.360   .     S
C1206  N1212   1.360   .     D
C1207  C1208   1.500   .     S
C1208  C1210   1.390   .     S
C1209  C1210   1.390   .     D
N1211  N1212   1.360   .     S
N1211  Fe985   2.091   1_655 S
N1212  Fe987   2.139   1_655 S
Fe1214 N272    2.091   1_565 S
Fe1214 N290    2.091   1_565 S
H1217  C1220   0.750   .     S
H1217  C1221   0.750   .     S
C1218  C1220   1.360   .     S
C1218  N1224   1.360   .     D
C1219  N1225   1.360   .     D
C1220  C2435   1.360   .     S
C1220  C1221   1.500   .     S
C1221  C1223   1.390   .     S
C1221  C2483   1.390   .     S
C1222  C1223   1.390   .     D
C1222  C2482   1.390   .     S
N1224  N2441   1.360   .     S
N1224  Fe1596  2.091   .     S
N1225  Fe1290  2.139   .     S
H1226  C1229   0.750   .     S
H1226  C1230   0.750   .     S
C1227  C1229   1.360   .     S
C1227  N1233   1.360   .     D
C1228  N1234   1.360   .     D
C1229  C2444   1.360   .     S
C1229  C1230   1.500   .     S
C1230  C1232   1.390   .     S
C1230  C2474   1.390   .     S
C1231  C1232   1.390   .     D
C1231  C2473   1.390   .     S
N1233  N2450   1.360   .     S
N1233  Fe1367  2.091   .     S
N1234  Fe1365  2.139   .     S
H1235  C1238   0.750   .     S
H1235  C1239   0.750   .     S
C1236  C1238   1.360   .     S
C1236  N1242   1.360   .     D
C1237  C1238   1.360   .     S
C1237  N1243   1.360   .     D
C1238  C1239   1.500   .     S
C1239  C1241   1.390   .     S
C1239  C1285   1.390   .     S
C1240  C1241   1.390   .     D
C1240  C1284   1.390   .     S
N1242  N1243   1.360   .     S
N1242  Fe1596  2.091   .     S
N1243  Fe1290  2.139   .     S
H1244  C1247   0.750   .     S
H1244  C1248   0.750   .     S
C1245  C1247   1.360   .     S
C1245  N1251   1.360   .     D
C1246  C1247   1.360   .     S
C1246  N1252   1.360   .     D
C1247  C1248   1.500   .     S
C1248  C1250   1.390   .     S
C1248  C1276   1.390   .     S
C1249  C1250   1.390   .     D
C1249  C1275   1.390   .     S
N1251  N1252   1.360   .     S
N1251  Fe1291  2.091   .     S
N1252  Fe1289  2.139   .     S
H1253  C1256   0.750   .     S
H1253  C1257   0.750   .     S
C1254  C1256   1.360   .     S
C1254  N1260   1.360   .     D
C1255  C2472   1.360   .     S
C1255  N1261   1.360   .     D
C1256  C1257   1.500   .     S
C1257  C1259   1.390   .     S
C1258  C1259   1.390   .     D
N1260  Fe2202  2.091   1_545 S
N1261  N2476   1.360   .     S
N1261  Fe1292  2.139   .     S
H1262  C1265   0.750   .     S
H1262  C1266   0.750   .     S
C1263  C1265   1.360   .     S
C1263  N1269   1.360   .     D
C1264  C2481   1.360   .     S
C1264  N1270   1.360   .     D
C1265  C1266   1.500   .     S
C1266  C1268   1.390   .     S
C1267  C1268   1.390   .     D
N1269  Fe1289  2.091   .     S
N1270  N2485   1.360   .     S
N1270  Fe1291  2.139   .     S
H1271  C1274   0.750   .     S
H1271  C1275   0.750   .     S
C1272  C1274   1.360   .     S
C1272  N1278   1.360   .     D
C1273  C1274   1.360   .     S
C1273  N1279   1.360   .     D
C1274  C1275   1.500   .     S
C1275  C1277   1.390   .     S
C1276  C1277   1.390   .     D
N1278  N1279   1.360   .     S
N1278  Fe2202  2.091   1_545 S
N1279  Fe1292  2.139   .     S
H1280  C1283   0.750   .     S
H1280  C1284   0.750   .     S
C1281  C1283   1.360   .     S
C1281  N1287   1.360   .     D
C1282  C1283   1.360   .     S
C1282  N1288   1.360   .     D
C1283  C1284   1.500   .     S
C1284  C1286   1.390   .     S
C1285  C1286   1.390   .     D
N1287  N1288   1.360   .     S
N1287  Fe1365  2.091   .     S
N1288  Fe1367  2.139   .     S
Fe1289 N1515   2.091   1_455 S
Fe1289 N1462   2.139   1_455 S
Fe1290 N1564   2.091   .     S
Fe1290 N1582   2.091   .     S
Fe1291 N1461   2.091   1_455 S
Fe1291 N1516   2.139   1_455 S
Fe1292 N2136   2.091   1_545 S
Fe1292 N2154   2.091   1_545 S
H1293  C1296   0.750   .     S
H1293  C1297   0.750   .     S
C1294  C1296   1.360   .     S
C1294  N1300   1.360   .     D
C1295  N1301   1.360   .     D
C1296  C2511   1.360   .     S
C1296  C1297   1.500   .     S
C1297  C1299   1.390   .     S
C1297  C2559   1.390   .     S
C1298  C1299   1.390   .     D
C1298  C2558   1.390   .     S
N1300  N2517   1.360   .     S
N1300  Fe1672  2.091   .     S
N1301  Fe1366  2.139   .     S
H1302  C1305   0.750   .     S
H1302  C1306   0.750   .     S
C1303  C1305   1.360   .     S
C1303  N1309   1.360   .     D
C1304  N1310   1.360   .     D
C1305  C2520   1.360   .     S
C1305  C1306   1.500   .     S
C1306  C1308   1.390   .     S
C1306  C2550   1.390   .     S
C1307  C1308   1.390   .     D
C1307  C2549   1.390   .     S
N1309  N2526   1.360   .     S
N1309  Fe1443  2.091   .     S
N1310  Fe1441  2.139   .     S
H1311  C1314   0.750   .     S
H1311  C1315   0.750   .     S
C1312  C1314   1.360   .     S
C1312  N1318   1.360   .     D
C1313  C1314   1.360   .     S
C1313  N1319   1.360   .     D
C1314  C1315   1.500   .     S
C1315  C1317   1.390   .     S
C1315  C1361   1.390   .     S
C1316  C1317   1.390   .     D
C1316  C1360   1.390   .     S
N1318  N1319   1.360   .     S
N1318  Fe1672  2.091   .     S
N1319  Fe1366  2.139   .     S
H1320  C1323   0.750   .     S
H1320  C1324   0.750   .     S
C1321  C1323   1.360   .     S
C1321  N1327   1.360   .     D
C1322  C1323   1.360   .     S
C1322  N1328   1.360   .     D
C1323  C1324   1.500   .     S
C1324  C1326   1.390   .     S
C1324  C1352   1.390   .     S
C1325  C1326   1.390   .     D
C1325  C1351   1.390   .     S
N1327  N1328   1.360   .     S
N1327  Fe1367  2.091   .     S
N1328  Fe1365  2.139   .     S
H1329  C1332   0.750   .     S
H1329  C1333   0.750   .     S
C1330  C1332   1.360   .     S
C1330  N1336   1.360   .     D
C1331  C2548   1.360   .     S
C1331  N1337   1.360   .     D
C1332  C1333   1.500   .     S
C1333  C1335   1.390   .     S
C1334  C1335   1.390   .     D
N1336  Fe2278  2.091   1_545 S
N1337  N2552   1.360   .     S
N1337  Fe1368  2.139   .     S
H1338  C1341   0.750   .     S
H1338  C1342   0.750   .     S
C1339  C1341   1.360   .     S
C1339  N1345   1.360   .     D
C1340  C2557   1.360   .     S
C1340  N1346   1.360   .     D
C1341  C1342   1.500   .     S
C1342  C1344   1.390   .     S
C1343  C1344   1.390   .     D
N1345  Fe1365  2.091   .     S
N1346  N2561   1.360   .     S
N1346  Fe1367  2.139   .     S
H1347  C1350   0.750   .     S
H1347  C1351   0.750   .     S
C1348  C1350   1.360   .     S
C1348  N1354   1.360   .     D
C1349  C1350   1.360   .     S
C1349  N1355   1.360   .     D
C1350  C1351   1.500   .     S
C1351  C1353   1.390   .     S
C1352  C1353   1.390   .     D
N1354  N1355   1.360   .     S
N1354  Fe2278  2.091   1_545 S
N1355  Fe1368  2.139   .     S
H1356  C1359   0.750   .     S
H1356  C1360   0.750   .     S
C1357  C1359   1.360   .     S
C1357  N1363   1.360   .     D
C1358  C1359   1.360   .     S
C1358  N1364   1.360   .     D
C1359  C1360   1.500   .     S
C1360  C1362   1.390   .     S
C1361  C1362   1.390   .     D
N1363  N1364   1.360   .     S
N1363  Fe1441  2.091   .     S
N1364  Fe1443  2.139   .     S
Fe1366 N1640   2.091   .     S
Fe1366 N1658   2.091   .     S
Fe1368 N2212   2.091   1_545 S
Fe1368 N2230   2.091   1_545 S
H1369  C1372   0.750   .     S
H1369  C1373   0.750   .     S
C1370  C1372   1.360   .     S
C1370  N1376   1.360   .     D
C1371  N1377   1.360   .     D
C1372  C2587   1.360   .     S
C1372  C1373   1.500   .     S
C1373  C1375   1.390   .     S
C1373  C2635   1.390   .     S
C1374  C1375   1.390   .     D
C1374  C2634   1.390   .     S
N1376  N2593   1.360   .     S
N1376  Fe1748  2.091   .     S
N1377  Fe1442  2.139   .     S
H1378  C1381   0.750   .     S
H1378  C1382   0.750   .     S
C1379  C1381   1.360   .     S
C1379  N1385   1.360   .     D
C1380  N1386   1.360   .     D
C1381  C2596   1.360   .     S
C1381  C1382   1.500   .     S
C1382  C1384   1.390   .     S
C1382  C2626   1.390   .     S
C1383  C1384   1.390   .     D
C1383  C2625   1.390   .     S
N1385  N2602   1.360   .     S
N1385  Fe1519  2.091   .     S
N1386  Fe1517  2.139   .     S
H1387  C1390   0.750   .     S
H1387  C1391   0.750   .     S
C1388  C1390   1.360   .     S
C1388  N1394   1.360   .     D
C1389  C1390   1.360   .     S
C1389  N1395   1.360   .     D
C1390  C1391   1.500   .     S
C1391  C1393   1.390   .     S
C1391  C1437   1.390   .     S
C1392  C1393   1.390   .     D
C1392  C1436   1.390   .     S
N1394  N1395   1.360   .     S
N1394  Fe1748  2.091   .     S
N1395  Fe1442  2.139   .     S
H1396  C1399   0.750   .     S
H1396  C1400   0.750   .     S
C1397  C1399   1.360   .     S
C1397  N1403   1.360   .     D
C1398  C1399   1.360   .     S
C1398  N1404   1.360   .     D
C1399  C1400   1.500   .     S
C1400  C1402   1.390   .     S
C1400  C1428   1.390   .     S
C1401  C1402   1.390   .     D
C1401  C1427   1.390   .     S
N1403  N1404   1.360   .     S
N1403  Fe1443  2.091   .     S
N1404  Fe1441  2.139   .     S
H1405  C1408   0.750   .     S
H1405  C1409   0.750   .     S
C1406  C1408   1.360   .     S
C1406  N1412   1.360   .     D
C1407  C2624   1.360   .     S
C1407  N1413   1.360   .     D
C1408  C1409   1.500   .     S
C1409  C1411   1.390   .     S
C1410  C1411   1.390   .     D
N1412  Fe2354  2.091   1_545 S
N1413  N2628   1.360   .     S
N1413  Fe1444  2.139   .     S
H1414  C1417   0.750   .     S
H1414  C1418   0.750   .     S
C1415  C1417   1.360   .     S
C1415  N1421   1.360   .     D
C1416  C2633   1.360   .     S
C1416  N1422   1.360   .     D
C1417  C1418   1.500   .     S
C1418  C1420   1.390   .     S
C1419  C1420   1.390   .     D
N1421  Fe1441  2.091   .     S
N1422  N2637   1.360   .     S
N1422  Fe1443  2.139   .     S
H1423  C1426   0.750   .     S
H1423  C1427   0.750   .     S
C1424  C1426   1.360   .     S
C1424  N1430   1.360   .     D
C1425  C1426   1.360   .     S
C1425  N1431   1.360   .     D
C1426  C1427   1.500   .     S
C1427  C1429   1.390   .     S
C1428  C1429   1.390   .     D
N1430  N1431   1.360   .     S
N1430  Fe2354  2.091   1_545 S
N1431  Fe1444  2.139   .     S
H1432  C1435   0.750   .     S
H1432  C1436   0.750   .     S
C1433  C1435   1.360   .     S
C1433  N1439   1.360   .     D
C1434  C1435   1.360   .     S
C1434  N1440   1.360   .     D
C1435  C1436   1.500   .     S
C1436  C1438   1.390   .     S
C1437  C1438   1.390   .     D
N1439  N1440   1.360   .     S
N1439  Fe1517  2.091   .     S
N1440  Fe1519  2.139   .     S
Fe1442 N1716   2.091   .     S
Fe1442 N1734   2.091   .     S
Fe1444 N2288   2.091   1_545 S
Fe1444 N2306   2.091   1_545 S
H1445  C1448   0.750   .     S
H1445  C1449   0.750   .     S
C1446  C1448   1.360   .     S
C1446  N1452   1.360   .     D
C1447  N1453   1.360   .     D
C1448  C2663   1.360   .     S
C1448  C1449   1.500   .     S
C1449  C1451   1.390   .     S
C1449  C2711   1.390   .     S
C1450  C1451   1.390   .     D
C1450  C2710   1.390   .     S
N1452  N2669   1.360   .     S
N1452  Fe1824  2.091   .     S
N1453  Fe1518  2.139   .     S
H1454  C1457   0.750   .     S
H1454  C1458   0.750   .     S
C1455  C1457   1.360   .     S
C1455  N1461   1.360   .     D
C1456  N1462   1.360   .     D
C1457  C2672   1.360   .     S
C1457  C1458   1.500   .     S
C1458  C1460   1.390   .     S
C1458  C2702   1.390   .     S
C1459  C1460   1.390   .     D
C1459  C2701   1.390   .     S
N1461  N2678   1.360   .     S
N1461  Fe1291  2.091   1_655 S
N1462  Fe1289  2.139   1_655 S
H1463  C1466   0.750   .     S
H1463  C1467   0.750   .     S
C1464  C1466   1.360   .     S
C1464  N1470   1.360   .     D
C1465  C1466   1.360   .     S
C1465  N1471   1.360   .     D
C1466  C1467   1.500   .     S
C1467  C1469   1.390   .     S
C1467  C1513   1.390   .     S
C1468  C1469   1.390   .     D
C1468  C1512   1.390   .     S
N1470  N1471   1.360   .     S
N1470  Fe1824  2.091   .     S
N1471  Fe1518  2.139   .     S
H1472  C1475   0.750   .     S
H1472  C1476   0.750   .     S
C1473  C1475   1.360   .     S
C1473  N1479   1.360   .     D
C1474  C1475   1.360   .     S
C1474  N1480   1.360   .     D
C1475  C1476   1.500   .     S
C1476  C1478   1.390   .     S
C1476  C1504   1.390   .     S
C1477  C1478   1.390   .     D
C1477  C1503   1.390   .     S
N1479  N1480   1.360   .     S
N1479  Fe1519  2.091   .     S
N1480  Fe1517  2.139   .     S
H1481  C1484   0.750   .     S
H1481  C1485   0.750   .     S
C1482  C1484   1.360   .     S
C1482  N1488   1.360   .     D
C1483  C2700   1.360   .     S
C1483  N1489   1.360   .     D
C1484  C1485   1.500   .     S
C1485  C1487   1.390   .     S
C1486  C1487   1.390   .     D
N1488  Fe2430  2.091   1_545 S
N1489  N2704   1.360   .     S
N1489  Fe1520  2.139   .     S
H1490  C1493   0.750   .     S
H1490  C1494   0.750   .     S
C1491  C1493   1.360   .     S
C1491  N1497   1.360   .     D
C1492  C2709   1.360   .     S
C1492  N1498   1.360   .     D
C1493  C1494   1.500   .     S
C1494  C1496   1.390   .     S
C1495  C1496   1.390   .     D
N1497  Fe1517  2.091   .     S
N1498  N2713   1.360   .     S
N1498  Fe1519  2.139   .     S
H1499  C1502   0.750   .     S
H1499  C1503   0.750   .     S
C1500  C1502   1.360   .     S
C1500  N1506   1.360   .     D
C1501  C1502   1.360   .     S
C1501  N1507   1.360   .     D
C1502  C1503   1.500   .     S
C1503  C1505   1.390   .     S
C1504  C1505   1.390   .     D
N1506  N1507   1.360   .     S
N1506  Fe2430  2.091   1_545 S
N1507  Fe1520  2.139   .     S
H1508  C1511   0.750   .     S
H1508  C1512   0.750   .     S
C1509  C1511   1.360   .     S
C1509  N1515   1.360   .     D
C1510  C1511   1.360   .     S
C1510  N1516   1.360   .     D
C1511  C1512   1.500   .     S
C1512  C1514   1.390   .     S
C1513  C1514   1.390   .     D
N1515  N1516   1.360   .     S
N1515  Fe1289  2.091   1_655 S
N1516  Fe1291  2.139   1_655 S
Fe1518 N1792   2.091   .     S
Fe1518 N1810   2.091   .     S
Fe1520 N2364   2.091   1_545 S
Fe1520 N2382   2.091   1_545 S
H1521  C1524   0.750   .     S
H1521  C1525   0.750   .     S
C1522  C1524   1.360   .     S
C1522  N1528   1.360   .     D
C1523  N1529   1.360   .     D
C1524  C2739   1.360   .     S
C1524  C1525   1.500   .     S
C1525  C1527   1.390   .     S
C1525  C2787   1.390   .     S
C1526  C1527   1.390   .     D
C1526  C2786   1.390   .     S
N1528  N2745   1.360   .     S
N1528  Fe1900  2.091   .     S
N1529  Fe1594  2.139   .     S
H1530  C1533   0.750   .     S
H1530  C1534   0.750   .     S
C1531  C1533   1.360   .     S
C1531  N1537   1.360   .     D
C1532  N1538   1.360   .     D
C1533  C2748   1.360   .     S
C1533  C1534   1.500   .     S
C1534  C1536   1.390   .     S
C1534  C2778   1.390   .     S
C1535  C1536   1.390   .     D
C1535  C2777   1.390   .     S
N1537  N2754   1.360   .     S
N1537  Fe1671  2.091   .     S
N1538  Fe1669  2.139   .     S
H1539  C1542   0.750   .     S
H1539  C1543   0.750   .     S
C1540  C1542   1.360   .     S
C1540  N1546   1.360   .     D
C1541  C1542   1.360   .     S
C1541  N1547   1.360   .     D
C1542  C1543   1.500   .     S
C1543  C1545   1.390   .     S
C1543  C1589   1.390   .     S
C1544  C1545   1.390   .     D
C1544  C1588   1.390   .     S
N1546  N1547   1.360   .     S
N1546  Fe1900  2.091   .     S
N1547  Fe1594  2.139   .     S
H1548  C1551   0.750   .     S
H1548  C1552   0.750   .     S
C1549  C1551   1.360   .     S
C1549  N1555   1.360   .     D
C1550  C1551   1.360   .     S
C1550  N1556   1.360   .     D
C1551  C1552   1.500   .     S
C1552  C1554   1.390   .     S
C1552  C1580   1.390   .     S
C1553  C1554   1.390   .     D
C1553  C1579   1.390   .     S
N1555  N1556   1.360   .     S
N1555  Fe1595  2.091   .     S
N1556  Fe1593  2.139   .     S
H1557  C1560   0.750   .     S
H1557  C1561   0.750   .     S
C1558  C1560   1.360   .     S
C1558  N1564   1.360   .     D
C1559  C2776   1.360   .     S
C1559  N1565   1.360   .     D
C1560  C1561   1.500   .     S
C1561  C1563   1.390   .     S
C1562  C1563   1.390   .     D
N1565  N2780   1.360   .     S
N1565  Fe1596  2.139   .     S
H1566  C1569   0.750   .     S
H1566  C1570   0.750   .     S
C1567  C1569   1.360   .     S
C1567  N1573   1.360   .     D
C1568  C2785   1.360   .     S
C1568  N1574   1.360   .     D
C1569  C1570   1.500   .     S
C1570  C1572   1.390   .     S
C1571  C1572   1.390   .     D
N1573  Fe1593  2.091   .     S
N1574  N2789   1.360   .     S
N1574  Fe1595  2.139   .     S
H1575  C1578   0.750   .     S
H1575  C1579   0.750   .     S
C1576  C1578   1.360   .     S
C1576  N1582   1.360   .     D
C1577  C1578   1.360   .     S
C1577  N1583   1.360   .     D
C1578  C1579   1.500   .     S
C1579  C1581   1.390   .     S
C1580  C1581   1.390   .     D
N1582  N1583   1.360   .     S
N1583  Fe1596  2.139   .     S
H1584  C1587   0.750   .     S
H1584  C1588   0.750   .     S
C1585  C1587   1.360   .     S
C1585  N1591   1.360   .     D
C1586  C1587   1.360   .     S
C1586  N1592   1.360   .     D
C1587  C1588   1.500   .     S
C1588  C1590   1.390   .     S
C1589  C1590   1.390   .     D
N1591  N1592   1.360   .     S
N1591  Fe1669  2.091   .     S
N1592  Fe1671  2.139   .     S
Fe1593 N1819   2.091   1_455 S
Fe1593 N1766   2.139   1_455 S
Fe1594 N1868   2.091   .     S
Fe1594 N1886   2.091   .     S
Fe1595 N1765   2.091   1_455 S
Fe1595 N1820   2.139   1_455 S
H1597  C1600   0.750   .     S
H1597  C1601   0.750   .     S
C1598  C1600   1.360   .     S
C1598  N1604   1.360   .     D
C1599  N1605   1.360   .     D
C1600  C2815   1.360   .     S
C1600  C1601   1.500   .     S
C1601  C1603   1.390   .     S
C1601  C2863   1.390   .     S
C1602  C1603   1.390   .     D
C1602  C2862   1.390   .     S
N1604  N2821   1.360   .     S
N1604  Fe1976  2.091   .     S
N1605  Fe1670  2.139   .     S
H1606  C1609   0.750   .     S
H1606  C1610   0.750   .     S
C1607  C1609   1.360   .     S
C1607  N1613   1.360   .     D
C1608  N1614   1.360   .     D
C1609  C2824   1.360   .     S
C1609  C1610   1.500   .     S
C1610  C1612   1.390   .     S
C1610  C2854   1.390   .     S
C1611  C1612   1.390   .     D
C1611  C2853   1.390   .     S
N1613  N2830   1.360   .     S
N1613  Fe1747  2.091   .     S
N1614  Fe1745  2.139   .     S
H1615  C1618   0.750   .     S
H1615  C1619   0.750   .     S
C1616  C1618   1.360   .     S
C1616  N1622   1.360   .     D
C1617  C1618   1.360   .     S
C1617  N1623   1.360   .     D
C1618  C1619   1.500   .     S
C1619  C1621   1.390   .     S
C1619  C1665   1.390   .     S
C1620  C1621   1.390   .     D
C1620  C1664   1.390   .     S
N1622  N1623   1.360   .     S
N1622  Fe1976  2.091   .     S
N1623  Fe1670  2.139   .     S
H1624  C1627   0.750   .     S
H1624  C1628   0.750   .     S
C1625  C1627   1.360   .     S
C1625  N1631   1.360   .     D
C1626  C1627   1.360   .     S
C1626  N1632   1.360   .     D
C1627  C1628   1.500   .     S
C1628  C1630   1.390   .     S
C1628  C1656   1.390   .     S
C1629  C1630   1.390   .     D
C1629  C1655   1.390   .     S
N1631  N1632   1.360   .     S
N1631  Fe1671  2.091   .     S
N1632  Fe1669  2.139   .     S
H1633  C1636   0.750   .     S
H1633  C1637   0.750   .     S
C1634  C1636   1.360   .     S
C1634  N1640   1.360   .     D
C1635  C2852   1.360   .     S
C1635  N1641   1.360   .     D
C1636  C1637   1.500   .     S
C1637  C1639   1.390   .     S
C1638  C1639   1.390   .     D
N1641  N2856   1.360   .     S
N1641  Fe1672  2.139   .     S
H1642  C1645   0.750   .     S
H1642  C1646   0.750   .     S
C1643  C1645   1.360   .     S
C1643  N1649   1.360   .     D
C1644  C2861   1.360   .     S
C1644  N1650   1.360   .     D
C1645  C1646   1.500   .     S
C1646  C1648   1.390   .     S
C1647  C1648   1.390   .     D
N1649  Fe1669  2.091   .     S
N1650  N2865   1.360   .     S
N1650  Fe1671  2.139   .     S
H1651  C1654   0.750   .     S
H1651  C1655   0.750   .     S
C1652  C1654   1.360   .     S
C1652  N1658   1.360   .     D
C1653  C1654   1.360   .     S
C1653  N1659   1.360   .     D
C1654  C1655   1.500   .     S
C1655  C1657   1.390   .     S
C1656  C1657   1.390   .     D
N1658  N1659   1.360   .     S
N1659  Fe1672  2.139   .     S
H1660  C1663   0.750   .     S
H1660  C1664   0.750   .     S
C1661  C1663   1.360   .     S
C1661  N1667   1.360   .     D
C1662  C1663   1.360   .     S
C1662  N1668   1.360   .     D
C1663  C1664   1.500   .     S
C1664  C1666   1.390   .     S
C1665  C1666   1.390   .     D
N1667  N1668   1.360   .     S
N1667  Fe1745  2.091   .     S
N1668  Fe1747  2.139   .     S
Fe1670 N1944   2.091   .     S
Fe1670 N1962   2.091   .     S
H1673  C1676   0.750   .     S
H1673  C1677   0.750   .     S
C1674  C1676   1.360   .     S
C1674  N1680   1.360   .     D
C1675  N1681   1.360   .     D
C1676  C2891   1.360   .     S
C1676  C1677   1.500   .     S
C1677  C1679   1.390   .     S
C1677  C2939   1.390   .     S
C1678  C1679   1.390   .     D
C1678  C2938   1.390   .     S
N1680  N2897   1.360   .     S
N1680  Fe2052  2.091   .     S
N1681  Fe1746  2.139   .     S
H1682  C1685   0.750   .     S
H1682  C1686   0.750   .     S
C1683  C1685   1.360   .     S
C1683  N1689   1.360   .     D
C1684  N1690   1.360   .     D
C1685  C2900   1.360   .     S
C1685  C1686   1.500   .     S
C1686  C1688   1.390   .     S
C1686  C2930   1.390   .     S
C1687  C1688   1.390   .     D
C1687  C2929   1.390   .     S
N1689  N2906   1.360   .     S
N1689  Fe1823  2.091   .     S
N1690  Fe1821  2.139   .     S
H1691  C1694   0.750   .     S
H1691  C1695   0.750   .     S
C1692  C1694   1.360   .     S
C1692  N1698   1.360   .     D
C1693  C1694   1.360   .     S
C1693  N1699   1.360   .     D
C1694  C1695   1.500   .     S
C1695  C1697   1.390   .     S
C1695  C1741   1.390   .     S
C1696  C1697   1.390   .     D
C1696  C1740   1.390   .     S
N1698  N1699   1.360   .     S
N1698  Fe2052  2.091   .     S
N1699  Fe1746  2.139   .     S
H1700  C1703   0.750   .     S
H1700  C1704   0.750   .     S
C1701  C1703   1.360   .     S
C1701  N1707   1.360   .     D
C1702  C1703   1.360   .     S
C1702  N1708   1.360   .     D
C1703  C1704   1.500   .     S
C1704  C1706   1.390   .     S
C1704  C1732   1.390   .     S
C1705  C1706   1.390   .     D
C1705  C1731   1.390   .     S
N1707  N1708   1.360   .     S
N1707  Fe1747  2.091   .     S
N1708  Fe1745  2.139   .     S
H1709  C1712   0.750   .     S
H1709  C1713   0.750   .     S
C1710  C1712   1.360   .     S
C1710  N1716   1.360   .     D
C1711  C2928   1.360   .     S
C1711  N1717   1.360   .     D
C1712  C1713   1.500   .     S
C1713  C1715   1.390   .     S
C1714  C1715   1.390   .     D
N1717  N2932   1.360   .     S
N1717  Fe1748  2.139   .     S
H1718  C1721   0.750   .     S
H1718  C1722   0.750   .     S
C1719  C1721   1.360   .     S
C1719  N1725   1.360   .     D
C1720  C2937   1.360   .     S
C1720  N1726   1.360   .     D
C1721  C1722   1.500   .     S
C1722  C1724   1.390   .     S
C1723  C1724   1.390   .     D
N1725  Fe1745  2.091   .     S
N1726  N2941   1.360   .     S
N1726  Fe1747  2.139   .     S
H1727  C1730   0.750   .     S
H1727  C1731   0.750   .     S
C1728  C1730   1.360   .     S
C1728  N1734   1.360   .     D
C1729  C1730   1.360   .     S
C1729  N1735   1.360   .     D
C1730  C1731   1.500   .     S
C1731  C1733   1.390   .     S
C1732  C1733   1.390   .     D
N1734  N1735   1.360   .     S
N1735  Fe1748  2.139   .     S
H1736  C1739   0.750   .     S
H1736  C1740   0.750   .     S
C1737  C1739   1.360   .     S
C1737  N1743   1.360   .     D
C1738  C1739   1.360   .     S
C1738  N1744   1.360   .     D
C1739  C1740   1.500   .     S
C1740  C1742   1.390   .     S
C1741  C1742   1.390   .     D
N1743  N1744   1.360   .     S
N1743  Fe1821  2.091   .     S
N1744  Fe1823  2.139   .     S
Fe1746 N2020   2.091   .     S
Fe1746 N2038   2.091   .     S
H1749  C1752   0.750   .     S
H1749  C1753   0.750   .     S
C1750  C1752   1.360   .     S
C1750  N1756   1.360   .     D
C1751  N1757   1.360   .     D
C1752  C2967   1.360   .     S
C1752  C1753   1.500   .     S
C1753  C1755   1.390   .     S
C1753  C3015   1.390   .     S
C1754  C1755   1.390   .     D
C1754  C3014   1.390   .     S
N1756  N2973   1.360   .     S
N1756  Fe2128  2.091   .     S
N1757  Fe1822  2.139   .     S
H1758  C1761   0.750   .     S
H1758  C1762   0.750   .     S
C1759  C1761   1.360   .     S
C1759  N1765   1.360   .     D
C1760  N1766   1.360   .     D
C1761  C2976   1.360   .     S
C1761  C1762   1.500   .     S
C1762  C1764   1.390   .     S
C1762  C3006   1.390   .     S
C1763  C1764   1.390   .     D
C1763  C3005   1.390   .     S
N1765  N2982   1.360   .     S
N1765  Fe1595  2.091   1_655 S
N1766  Fe1593  2.139   1_655 S
H1767  C1770   0.750   .     S
H1767  C1771   0.750   .     S
C1768  C1770   1.360   .     S
C1768  N1774   1.360   .     D
C1769  C1770   1.360   .     S
C1769  N1775   1.360   .     D
C1770  C1771   1.500   .     S
C1771  C1773   1.390   .     S
C1771  C1817   1.390   .     S
C1772  C1773   1.390   .     D
C1772  C1816   1.390   .     S
N1774  N1775   1.360   .     S
N1774  Fe2128  2.091   .     S
N1775  Fe1822  2.139   .     S
H1776  C1779   0.750   .     S
H1776  C1780   0.750   .     S
C1777  C1779   1.360   .     S
C1777  N1783   1.360   .     D
C1778  C1779   1.360   .     S
C1778  N1784   1.360   .     D
C1779  C1780   1.500   .     S
C1780  C1782   1.390   .     S
C1780  C1808   1.390   .     S
C1781  C1782   1.390   .     D
C1781  C1807   1.390   .     S
N1783  N1784   1.360   .     S
N1783  Fe1823  2.091   .     S
N1784  Fe1821  2.139   .     S
H1785  C1788   0.750   .     S
H1785  C1789   0.750   .     S
C1786  C1788   1.360   .     S
C1786  N1792   1.360   .     D
C1787  C3004   1.360   .     S
C1787  N1793   1.360   .     D
C1788  C1789   1.500   .     S
C1789  C1791   1.390   .     S
C1790  C1791   1.390   .     D
N1793  N3008   1.360   .     S
N1793  Fe1824  2.139   .     S
H1794  C1797   0.750   .     S
H1794  C1798   0.750   .     S
C1795  C1797   1.360   .     S
C1795  N1801   1.360   .     D
C1796  C3013   1.360   .     S
C1796  N1802   1.360   .     D
C1797  C1798   1.500   .     S
C1798  C1800   1.390   .     S
C1799  C1800   1.390   .     D
N1801  Fe1821  2.091   .     S
N1802  N3017   1.360   .     S
N1802  Fe1823  2.139   .     S
H1803  C1806   0.750   .     S
H1803  C1807   0.750   .     S
C1804  C1806   1.360   .     S
C1804  N1810   1.360   .     D
C1805  C1806   1.360   .     S
C1805  N1811   1.360   .     D
C1806  C1807   1.500   .     S
C1807  C1809   1.390   .     S
C1808  C1809   1.390   .     D
N1810  N1811   1.360   .     S
N1811  Fe1824  2.139   .     S
H1812  C1815   0.750   .     S
H1812  C1816   0.750   .     S
C1813  C1815   1.360   .     S
C1813  N1819   1.360   .     D
C1814  C1815   1.360   .     S
C1814  N1820   1.360   .     D
C1815  C1816   1.500   .     S
C1816  C1818   1.390   .     S
C1817  C1818   1.390   .     D
N1819  N1820   1.360   .     S
N1819  Fe1593  2.091   1_655 S
N1820  Fe1595  2.139   1_655 S
Fe1822 N2096   2.091   .     S
Fe1822 N2114   2.091   .     S
H1825  C1828   0.750   .     S
H1825  C1829   0.750   .     S
C1826  C1828   1.360   .     S
C1826  N1832   1.360   .     D
C1827  N1833   1.360   .     D
C1828  C3043   1.360   .     S
C1828  C1829   1.500   .     S
C1829  C1831   1.390   .     S
C1829  C3091   1.390   .     S
C1830  C1831   1.390   .     D
C1830  C3090   1.390   .     S
N1832  N3049   1.360   .     S
N1832  Fe2204  2.091   .     S
N1833  Fe1898  2.139   .     S
H1834  C1837   0.750   .     S
H1834  C1838   0.750   .     S
C1835  C1837   1.360   .     S
C1835  N1841   1.360   .     D
C1836  N1842   1.360   .     D
C1837  C3052   1.360   .     S
C1837  C1838   1.500   .     S
C1838  C1840   1.390   .     S
C1838  C3082   1.390   .     S
C1839  C1840   1.390   .     D
C1839  C3081   1.390   .     S
N1841  N3058   1.360   .     S
N1841  Fe1975  2.091   .     S
N1842  Fe1973  2.139   .     S
H1843  C1846   0.750   .     S
H1843  C1847   0.750   .     S
C1844  C1846   1.360   .     S
C1844  N1850   1.360   .     D
C1845  C1846   1.360   .     S
C1845  N1851   1.360   .     D
C1846  C1847   1.500   .     S
C1847  C1849   1.390   .     S
C1847  C1893   1.390   .     S
C1848  C1849   1.390   .     D
C1848  C1892   1.390   .     S
N1850  N1851   1.360   .     S
N1850  Fe2204  2.091   .     S
N1851  Fe1898  2.139   .     S
H1852  C1855   0.750   .     S
H1852  C1856   0.750   .     S
C1853  C1855   1.360   .     S
C1853  N1859   1.360   .     D
C1854  C1855   1.360   .     S
C1854  N1860   1.360   .     D
C1855  C1856   1.500   .     S
C1856  C1858   1.390   .     S
C1856  C1884   1.390   .     S
C1857  C1858   1.390   .     D
C1857  C1883   1.390   .     S
N1859  N1860   1.360   .     S
N1859  Fe1899  2.091   .     S
N1860  Fe1897  2.139   .     S
H1861  C1864   0.750   .     S
H1861  C1865   0.750   .     S
C1862  C1864   1.360   .     S
C1862  N1868   1.360   .     D
C1863  C3080   1.360   .     S
C1863  N1869   1.360   .     D
C1864  C1865   1.500   .     S
C1865  C1867   1.390   .     S
C1866  C1867   1.390   .     D
N1869  N3084   1.360   .     S
N1869  Fe1900  2.139   .     S
H1870  C1873   0.750   .     S
H1870  C1874   0.750   .     S
C1871  C1873   1.360   .     S
C1871  N1877   1.360   .     D
C1872  C3089   1.360   .     S
C1872  N1878   1.360   .     D
C1873  C1874   1.500   .     S
C1874  C1876   1.390   .     S
C1875  C1876   1.390   .     D
N1877  Fe1897  2.091   .     S
N1878  N3093   1.360   .     S
N1878  Fe1899  2.139   .     S
H1879  C1882   0.750   .     S
H1879  C1883   0.750   .     S
C1880  C1882   1.360   .     S
C1880  N1886   1.360   .     D
C1881  C1882   1.360   .     S
C1881  N1887   1.360   .     D
C1882  C1883   1.500   .     S
C1883  C1885   1.390   .     S
C1884  C1885   1.390   .     D
N1886  N1887   1.360   .     S
N1887  Fe1900  2.139   .     S
H1888  C1891   0.750   .     S
H1888  C1892   0.750   .     S
C1889  C1891   1.360   .     S
C1889  N1895   1.360   .     D
C1890  C1891   1.360   .     S
C1890  N1896   1.360   .     D
C1891  C1892   1.500   .     S
C1892  C1894   1.390   .     S
C1893  C1894   1.390   .     D
N1895  N1896   1.360   .     S
N1895  Fe1973  2.091   .     S
N1896  Fe1975  2.139   .     S
Fe1897 N2123   2.091   1_455 S
Fe1897 N2070   2.139   1_455 S
Fe1898 N2172   2.091   .     S
Fe1898 N2190   2.091   .     S
Fe1899 N2069   2.091   1_455 S
Fe1899 N2124   2.139   1_455 S
H1901  C1904   0.750   .     S
H1901  C1905   0.750   .     S
C1902  C1904   1.360   .     S
C1902  N1908   1.360   .     D
C1903  N1909   1.360   .     D
C1904  C3119   1.360   .     S
C1904  C1905   1.500   .     S
C1905  C1907   1.390   .     S
C1905  C3167   1.390   .     S
C1906  C1907   1.390   .     D
C1906  C3166   1.390   .     S
N1908  N3125   1.360   .     S
N1908  Fe2280  2.091   .     S
N1909  Fe1974  2.139   .     S
H1910  C1913   0.750   .     S
H1910  C1914   0.750   .     S
C1911  C1913   1.360   .     S
C1911  N1917   1.360   .     D
C1912  N1918   1.360   .     D
C1913  C3128   1.360   .     S
C1913  C1914   1.500   .     S
C1914  C1916   1.390   .     S
C1914  C3158   1.390   .     S
C1915  C1916   1.390   .     D
C1915  C3157   1.390   .     S
N1917  N3134   1.360   .     S
N1917  Fe2051  2.091   .     S
N1918  Fe2049  2.139   .     S
H1919  C1922   0.750   .     S
H1919  C1923   0.750   .     S
C1920  C1922   1.360   .     S
C1920  N1926   1.360   .     D
C1921  C1922   1.360   .     S
C1921  N1927   1.360   .     D
C1922  C1923   1.500   .     S
C1923  C1925   1.390   .     S
C1923  C1969   1.390   .     S
C1924  C1925   1.390   .     D
C1924  C1968   1.390   .     S
N1926  N1927   1.360   .     S
N1926  Fe2280  2.091   .     S
N1927  Fe1974  2.139   .     S
H1928  C1931   0.750   .     S
H1928  C1932   0.750   .     S
C1929  C1931   1.360   .     S
C1929  N1935   1.360   .     D
C1930  C1931   1.360   .     S
C1930  N1936   1.360   .     D
C1931  C1932   1.500   .     S
C1932  C1934   1.390   .     S
C1932  C1960   1.390   .     S
C1933  C1934   1.390   .     D
C1933  C1959   1.390   .     S
N1935  N1936   1.360   .     S
N1935  Fe1975  2.091   .     S
N1936  Fe1973  2.139   .     S
H1937  C1940   0.750   .     S
H1937  C1941   0.750   .     S
C1938  C1940   1.360   .     S
C1938  N1944   1.360   .     D
C1939  C3156   1.360   .     S
C1939  N1945   1.360   .     D
C1940  C1941   1.500   .     S
C1941  C1943   1.390   .     S
C1942  C1943   1.390   .     D
N1945  N3160   1.360   .     S
N1945  Fe1976  2.139   .     S
H1946  C1949   0.750   .     S
H1946  C1950   0.750   .     S
C1947  C1949   1.360   .     S
C1947  N1953   1.360   .     D
C1948  C3165   1.360   .     S
C1948  N1954   1.360   .     D
C1949  C1950   1.500   .     S
C1950  C1952   1.390   .     S
C1951  C1952   1.390   .     D
N1953  Fe1973  2.091   .     S
N1954  N3169   1.360   .     S
N1954  Fe1975  2.139   .     S
H1955  C1958   0.750   .     S
H1955  C1959   0.750   .     S
C1956  C1958   1.360   .     S
C1956  N1962   1.360   .     D
C1957  C1958   1.360   .     S
C1957  N1963   1.360   .     D
C1958  C1959   1.500   .     S
C1959  C1961   1.390   .     S
C1960  C1961   1.390   .     D
N1962  N1963   1.360   .     S
N1963  Fe1976  2.139   .     S
H1964  C1967   0.750   .     S
H1964  C1968   0.750   .     S
C1965  C1967   1.360   .     S
C1965  N1971   1.360   .     D
C1966  C1967   1.360   .     S
C1966  N1972   1.360   .     D
C1967  C1968   1.500   .     S
C1968  C1970   1.390   .     S
C1969  C1970   1.390   .     D
N1971  N1972   1.360   .     S
N1971  Fe2049  2.091   .     S
N1972  Fe2051  2.139   .     S
Fe1974 N2248   2.091   .     S
Fe1974 N2266   2.091   .     S
H1977  C1980   0.750   .     S
H1977  C1981   0.750   .     S
C1978  C1980   1.360   .     S
C1978  N1984   1.360   .     D
C1979  N1985   1.360   .     D
C1980  C3195   1.360   .     S
C1980  C1981   1.500   .     S
C1981  C1983   1.390   .     S
C1981  C3243   1.390   .     S
C1982  C1983   1.390   .     D
C1982  C3242   1.390   .     S
N1984  N3201   1.360   .     S
N1984  Fe2356  2.091   .     S
N1985  Fe2050  2.139   .     S
H1986  C1989   0.750   .     S
H1986  C1990   0.750   .     S
C1987  C1989   1.360   .     S
C1987  N1993   1.360   .     D
C1988  N1994   1.360   .     D
C1989  C3204   1.360   .     S
C1989  C1990   1.500   .     S
C1990  C1992   1.390   .     S
C1990  C3234   1.390   .     S
C1991  C1992   1.390   .     D
C1991  C3233   1.390   .     S
N1993  N3210   1.360   .     S
N1993  Fe2127  2.091   .     S
N1994  Fe2125  2.139   .     S
H1995  C1998   0.750   .     S
H1995  C1999   0.750   .     S
C1996  C1998   1.360   .     S
C1996  N2002   1.360   .     D
C1997  C1998   1.360   .     S
C1997  N2003   1.360   .     D
C1998  C1999   1.500   .     S
C1999  C2001   1.390   .     S
C1999  C2045   1.390   .     S
C2000  C2001   1.390   .     D
C2000  C2044   1.390   .     S
N2002  N2003   1.360   .     S
N2002  Fe2356  2.091   .     S
N2003  Fe2050  2.139   .     S
H2004  C2007   0.750   .     S
H2004  C2008   0.750   .     S
C2005  C2007   1.360   .     S
C2005  N2011   1.360   .     D
C2006  C2007   1.360   .     S
C2006  N2012   1.360   .     D
C2007  C2008   1.500   .     S
C2008  C2010   1.390   .     S
C2008  C2036   1.390   .     S
C2009  C2010   1.390   .     D
C2009  C2035   1.390   .     S
N2011  N2012   1.360   .     S
N2011  Fe2051  2.091   .     S
N2012  Fe2049  2.139   .     S
H2013  C2016   0.750   .     S
H2013  C2017   0.750   .     S
C2014  C2016   1.360   .     S
C2014  N2020   1.360   .     D
C2015  C3232   1.360   .     S
C2015  N2021   1.360   .     D
C2016  C2017   1.500   .     S
C2017  C2019   1.390   .     S
C2018  C2019   1.390   .     D
N2021  N3236   1.360   .     S
N2021  Fe2052  2.139   .     S
H2022  C2025   0.750   .     S
H2022  C2026   0.750   .     S
C2023  C2025   1.360   .     S
C2023  N2029   1.360   .     D
C2024  C3241   1.360   .     S
C2024  N2030   1.360   .     D
C2025  C2026   1.500   .     S
C2026  C2028   1.390   .     S
C2027  C2028   1.390   .     D
N2029  Fe2049  2.091   .     S
N2030  N3245   1.360   .     S
N2030  Fe2051  2.139   .     S
H2031  C2034   0.750   .     S
H2031  C2035   0.750   .     S
C2032  C2034   1.360   .     S
C2032  N2038   1.360   .     D
C2033  C2034   1.360   .     S
C2033  N2039   1.360   .     D
C2034  C2035   1.500   .     S
C2035  C2037   1.390   .     S
C2036  C2037   1.390   .     D
N2038  N2039   1.360   .     S
N2039  Fe2052  2.139   .     S
H2040  C2043   0.750   .     S
H2040  C2044   0.750   .     S
C2041  C2043   1.360   .     S
C2041  N2047   1.360   .     D
C2042  C2043   1.360   .     S
C2042  N2048   1.360   .     D
C2043  C2044   1.500   .     S
C2044  C2046   1.390   .     S
C2045  C2046   1.390   .     D
N2047  N2048   1.360   .     S
N2047  Fe2125  2.091   .     S
N2048  Fe2127  2.139   .     S
Fe2050 N2324   2.091   .     S
Fe2050 N2342   2.091   .     S
H2053  C2056   0.750   .     S
H2053  C2057   0.750   .     S
C2054  C2056   1.360   .     S
C2054  N2060   1.360   .     D
C2055  N2061   1.360   .     D
C2056  C3271   1.360   .     S
C2056  C2057   1.500   .     S
C2057  C2059   1.390   .     S
C2057  C3319   1.390   .     S
C2058  C2059   1.390   .     D
C2058  C3318   1.390   .     S
N2060  N3277   1.360   .     S
N2060  Fe2432  2.091   .     S
N2061  Fe2126  2.139   .     S
H2062  C2065   0.750   .     S
H2062  C2066   0.750   .     S
C2063  C2065   1.360   .     S
C2063  N2069   1.360   .     D
C2064  N2070   1.360   .     D
C2065  C3280   1.360   .     S
C2065  C2066   1.500   .     S
C2066  C2068   1.390   .     S
C2066  C3310   1.390   .     S
C2067  C2068   1.390   .     D
C2067  C3309   1.390   .     S
N2069  N3286   1.360   .     S
N2069  Fe1899  2.091   1_655 S
N2070  Fe1897  2.139   1_655 S
H2071  C2074   0.750   .     S
H2071  C2075   0.750   .     S
C2072  C2074   1.360   .     S
C2072  N2078   1.360   .     D
C2073  C2074   1.360   .     S
C2073  N2079   1.360   .     D
C2074  C2075   1.500   .     S
C2075  C2077   1.390   .     S
C2075  C2121   1.390   .     S
C2076  C2077   1.390   .     D
C2076  C2120   1.390   .     S
N2078  N2079   1.360   .     S
N2078  Fe2432  2.091   .     S
N2079  Fe2126  2.139   .     S
H2080  C2083   0.750   .     S
H2080  C2084   0.750   .     S
C2081  C2083   1.360   .     S
C2081  N2087   1.360   .     D
C2082  C2083   1.360   .     S
C2082  N2088   1.360   .     D
C2083  C2084   1.500   .     S
C2084  C2086   1.390   .     S
C2084  C2112   1.390   .     S
C2085  C2086   1.390   .     D
C2085  C2111   1.390   .     S
N2087  N2088   1.360   .     S
N2087  Fe2127  2.091   .     S
N2088  Fe2125  2.139   .     S
H2089  C2092   0.750   .     S
H2089  C2093   0.750   .     S
C2090  C2092   1.360   .     S
C2090  N2096   1.360   .     D
C2091  C3308   1.360   .     S
C2091  N2097   1.360   .     D
C2092  C2093   1.500   .     S
C2093  C2095   1.390   .     S
C2094  C2095   1.390   .     D
N2097  N3312   1.360   .     S
N2097  Fe2128  2.139   .     S
H2098  C2101   0.750   .     S
H2098  C2102   0.750   .     S
C2099  C2101   1.360   .     S
C2099  N2105   1.360   .     D
C2100  C3317   1.360   .     S
C2100  N2106   1.360   .     D
C2101  C2102   1.500   .     S
C2102  C2104   1.390   .     S
C2103  C2104   1.390   .     D
N2105  Fe2125  2.091   .     S
N2106  N3321   1.360   .     S
N2106  Fe2127  2.139   .     S
H2107  C2110   0.750   .     S
H2107  C2111   0.750   .     S
C2108  C2110   1.360   .     S
C2108  N2114   1.360   .     D
C2109  C2110   1.360   .     S
C2109  N2115   1.360   .     D
C2110  C2111   1.500   .     S
C2111  C2113   1.390   .     S
C2112  C2113   1.390   .     D
N2114  N2115   1.360   .     S
N2115  Fe2128  2.139   .     S
H2116  C2119   0.750   .     S
H2116  C2120   0.750   .     S
C2117  C2119   1.360   .     S
C2117  N2123   1.360   .     D
C2118  C2119   1.360   .     S
C2118  N2124   1.360   .     D
C2119  C2120   1.500   .     S
C2120  C2122   1.390   .     S
C2121  C2122   1.390   .     D
N2123  N2124   1.360   .     S
N2123  Fe1897  2.091   1_655 S
N2124  Fe1899  2.139   1_655 S
Fe2126 N2400   2.091   .     S
Fe2126 N2418   2.091   .     S
H2129  C2132   0.750   .     S
H2129  C2133   0.750   .     S
C2130  C2132   1.360   .     S
C2130  N2136   1.360   .     D
C2131  N2137   1.360   .     D
C2132  C3347   1.360   .     S
C2132  C2133   1.500   .     S
C2133  C2135   1.390   .     S
C2133  C3395   1.390   .     S
C2134  C2135   1.390   .     D
C2134  C3394   1.390   .     S
N2136  N3353   1.360   .     S
N2136  Fe1292  2.091   1_565 S
N2137  Fe2202  2.139   .     S
H2138  C2141   0.750   .     S
H2138  C2142   0.750   .     S
C2139  C2141   1.360   .     S
C2139  N2145   1.360   .     D
C2140  N2146   1.360   .     D
C2141  C3356   1.360   .     S
C2141  C2142   1.500   .     S
C2142  C2144   1.390   .     S
C2142  C3386   1.390   .     S
C2143  C2144   1.390   .     D
C2143  C3385   1.390   .     S
N2145  N3362   1.360   .     S
N2145  Fe2279  2.091   .     S
N2146  Fe2277  2.139   .     S
H2147  C2150   0.750   .     S
H2147  C2151   0.750   .     S
C2148  C2150   1.360   .     S
C2148  N2154   1.360   .     D
C2149  C2150   1.360   .     S
C2149  N2155   1.360   .     D
C2150  C2151   1.500   .     S
C2151  C2153   1.390   .     S
C2151  C2197   1.390   .     S
C2152  C2153   1.390   .     D
C2152  C2196   1.390   .     S
N2154  N2155   1.360   .     S
N2154  Fe1292  2.091   1_565 S
N2155  Fe2202  2.139   .     S
H2156  C2159   0.750   .     S
H2156  C2160   0.750   .     S
C2157  C2159   1.360   .     S
C2157  N2163   1.360   .     D
C2158  C2159   1.360   .     S
C2158  N2164   1.360   .     D
C2159  C2160   1.500   .     S
C2160  C2162   1.390   .     S
C2160  C2188   1.390   .     S
C2161  C2162   1.390   .     D
C2161  C2187   1.390   .     S
N2163  N2164   1.360   .     S
N2163  Fe2203  2.091   .     S
N2164  Fe2201  2.139   .     S
H2165  C2168   0.750   .     S
H2165  C2169   0.750   .     S
C2166  C2168   1.360   .     S
C2166  N2172   1.360   .     D
C2167  C3384   1.360   .     S
C2167  N2173   1.360   .     D
C2168  C2169   1.500   .     S
C2169  C2171   1.390   .     S
C2170  C2171   1.390   .     D
N2173  N3388   1.360   .     S
N2173  Fe2204  2.139   .     S
H2174  C2177   0.750   .     S
H2174  C2178   0.750   .     S
C2175  C2177   1.360   .     S
C2175  N2181   1.360   .     D
C2176  C3393   1.360   .     S
C2176  N2182   1.360   .     D
C2177  C2178   1.500   .     S
C2178  C2180   1.390   .     S
C2179  C2180   1.390   .     D
N2181  Fe2201  2.091   .     S
N2182  N3397   1.360   .     S
N2182  Fe2203  2.139   .     S
H2183  C2186   0.750   .     S
H2183  C2187   0.750   .     S
C2184  C2186   1.360   .     S
C2184  N2190   1.360   .     D
C2185  C2186   1.360   .     S
C2185  N2191   1.360   .     D
C2186  C2187   1.500   .     S
C2187  C2189   1.390   .     S
C2188  C2189   1.390   .     D
N2190  N2191   1.360   .     S
N2191  Fe2204  2.139   .     S
H2192  C2195   0.750   .     S
H2192  C2196   0.750   .     S
C2193  C2195   1.360   .     S
C2193  N2199   1.360   .     D
C2194  C2195   1.360   .     S
C2194  N2200   1.360   .     D
C2195  C2196   1.500   .     S
C2196  C2198   1.390   .     S
C2197  C2198   1.390   .     D
N2199  N2200   1.360   .     S
N2199  Fe2277  2.091   .     S
N2200  Fe2279  2.139   .     S
Fe2201 N2427   2.091   1_455 S
Fe2201 N2374   2.139   1_455 S
Fe2202 N1260   2.091   1_565 S
Fe2202 N1278   2.091   1_565 S
Fe2203 N2373   2.091   1_455 S
Fe2203 N2428   2.139   1_455 S
H2205  C2208   0.750   .     S
H2205  C2209   0.750   .     S
C2206  C2208   1.360   .     S
C2206  N2212   1.360   .     D
C2207  N2213   1.360   .     D
C2208  C3423   1.360   .     S
C2208  C2209   1.500   .     S
C2209  C2211   1.390   .     S
C2209  C3471   1.390   .     S
C2210  C2211   1.390   .     D
C2210  C3470   1.390   .     S
N2212  N3429   1.360   .     S
N2212  Fe1368  2.091   1_565 S
N2213  Fe2278  2.139   .     S
H2214  C2217   0.750   .     S
H2214  C2218   0.750   .     S
C2215  C2217   1.360   .     S
C2215  N2221   1.360   .     D
C2216  N2222   1.360   .     D
C2217  C3432   1.360   .     S
C2217  C2218   1.500   .     S
C2218  C2220   1.390   .     S
C2218  C3462   1.390   .     S
C2219  C2220   1.390   .     D
C2219  C3461   1.390   .     S
N2221  N3438   1.360   .     S
N2221  Fe2355  2.091   .     S
N2222  Fe2353  2.139   .     S
H2223  C2226   0.750   .     S
H2223  C2227   0.750   .     S
C2224  C2226   1.360   .     S
C2224  N2230   1.360   .     D
C2225  C2226   1.360   .     S
C2225  N2231   1.360   .     D
C2226  C2227   1.500   .     S
C2227  C2229   1.390   .     S
C2227  C2273   1.390   .     S
C2228  C2229   1.390   .     D
C2228  C2272   1.390   .     S
N2230  N2231   1.360   .     S
N2230  Fe1368  2.091   1_565 S
N2231  Fe2278  2.139   .     S
H2232  C2235   0.750   .     S
H2232  C2236   0.750   .     S
C2233  C2235   1.360   .     S
C2233  N2239   1.360   .     D
C2234  C2235   1.360   .     S
C2234  N2240   1.360   .     D
C2235  C2236   1.500   .     S
C2236  C2238   1.390   .     S
C2236  C2264   1.390   .     S
C2237  C2238   1.390   .     D
C2237  C2263   1.390   .     S
N2239  N2240   1.360   .     S
N2239  Fe2279  2.091   .     S
N2240  Fe2277  2.139   .     S
H2241  C2244   0.750   .     S
H2241  C2245   0.750   .     S
C2242  C2244   1.360   .     S
C2242  N2248   1.360   .     D
C2243  C3460   1.360   .     S
C2243  N2249   1.360   .     D
C2244  C2245   1.500   .     S
C2245  C2247   1.390   .     S
C2246  C2247   1.390   .     D
N2249  N3464   1.360   .     S
N2249  Fe2280  2.139   .     S
H2250  C2253   0.750   .     S
H2250  C2254   0.750   .     S
C2251  C2253   1.360   .     S
C2251  N2257   1.360   .     D
C2252  C3469   1.360   .     S
C2252  N2258   1.360   .     D
C2253  C2254   1.500   .     S
C2254  C2256   1.390   .     S
C2255  C2256   1.390   .     D
N2257  Fe2277  2.091   .     S
N2258  N3473   1.360   .     S
N2258  Fe2279  2.139   .     S
H2259  C2262   0.750   .     S
H2259  C2263   0.750   .     S
C2260  C2262   1.360   .     S
C2260  N2266   1.360   .     D
C2261  C2262   1.360   .     S
C2261  N2267   1.360   .     D
C2262  C2263   1.500   .     S
C2263  C2265   1.390   .     S
C2264  C2265   1.390   .     D
N2266  N2267   1.360   .     S
N2267  Fe2280  2.139   .     S
H2268  C2271   0.750   .     S
H2268  C2272   0.750   .     S
C2269  C2271   1.360   .     S
C2269  N2275   1.360   .     D
C2270  C2271   1.360   .     S
C2270  N2276   1.360   .     D
C2271  C2272   1.500   .     S
C2272  C2274   1.390   .     S
C2273  C2274   1.390   .     D
N2275  N2276   1.360   .     S
N2275  Fe2353  2.091   .     S
N2276  Fe2355  2.139   .     S
Fe2278 N1336   2.091   1_565 S
Fe2278 N1354   2.091   1_565 S
H2281  C2284   0.750   .     S
H2281  C2285   0.750   .     S
C2282  C2284   1.360   .     S
C2282  N2288   1.360   .     D
C2283  N2289   1.360   .     D
C2284  C3499   1.360   .     S
C2284  C2285   1.500   .     S
C2285  C2287   1.390   .     S
C2285  C3547   1.390   .     S
C2286  C2287   1.390   .     D
C2286  C3546   1.390   .     S
N2288  N3505   1.360   .     S
N2288  Fe1444  2.091   1_565 S
N2289  Fe2354  2.139   .     S
H2290  C2293   0.750   .     S
H2290  C2294   0.750   .     S
C2291  C2293   1.360   .     S
C2291  N2297   1.360   .     D
C2292  N2298   1.360   .     D
C2293  C3508   1.360   .     S
C2293  C2294   1.500   .     S
C2294  C2296   1.390   .     S
C2294  C3538   1.390   .     S
C2295  C2296   1.390   .     D
C2295  C3537   1.390   .     S
N2297  N3514   1.360   .     S
N2297  Fe2431  2.091   .     S
N2298  Fe2429  2.139   .     S
H2299  C2302   0.750   .     S
H2299  C2303   0.750   .     S
C2300  C2302   1.360   .     S
C2300  N2306   1.360   .     D
C2301  C2302   1.360   .     S
C2301  N2307   1.360   .     D
C2302  C2303   1.500   .     S
C2303  C2305   1.390   .     S
C2303  C2349   1.390   .     S
C2304  C2305   1.390   .     D
C2304  C2348   1.390   .     S
N2306  N2307   1.360   .     S
N2306  Fe1444  2.091   1_565 S
N2307  Fe2354  2.139   .     S
H2308  C2311   0.750   .     S
H2308  C2312   0.750   .     S
C2309  C2311   1.360   .     S
C2309  N2315   1.360   .     D
C2310  C2311   1.360   .     S
C2310  N2316   1.360   .     D
C2311  C2312   1.500   .     S
C2312  C2314   1.390   .     S
C2312  C2340   1.390   .     S
C2313  C2314   1.390   .     D
C2313  C2339   1.390   .     S
N2315  N2316   1.360   .     S
N2315  Fe2355  2.091   .     S
N2316  Fe2353  2.139   .     S
H2317  C2320   0.750   .     S
H2317  C2321   0.750   .     S
C2318  C2320   1.360   .     S
C2318  N2324   1.360   .     D
C2319  C3536   1.360   .     S
C2319  N2325   1.360   .     D
C2320  C2321   1.500   .     S
C2321  C2323   1.390   .     S
C2322  C2323   1.390   .     D
N2325  N3540   1.360   .     S
N2325  Fe2356  2.139   .     S
H2326  C2329   0.750   .     S
H2326  C2330   0.750   .     S
C2327  C2329   1.360   .     S
C2327  N2333   1.360   .     D
C2328  C3545   1.360   .     S
C2328  N2334   1.360   .     D
C2329  C2330   1.500   .     S
C2330  C2332   1.390   .     S
C2331  C2332   1.390   .     D
N2333  Fe2353  2.091   .     S
N2334  N3549   1.360   .     S
N2334  Fe2355  2.139   .     S
H2335  C2338   0.750   .     S
H2335  C2339   0.750   .     S
C2336  C2338   1.360   .     S
C2336  N2342   1.360   .     D
C2337  C2338   1.360   .     S
C2337  N2343   1.360   .     D
C2338  C2339   1.500   .     S
C2339  C2341   1.390   .     S
C2340  C2341   1.390   .     D
N2342  N2343   1.360   .     S
N2343  Fe2356  2.139   .     S
H2344  C2347   0.750   .     S
H2344  C2348   0.750   .     S
C2345  C2347   1.360   .     S
C2345  N2351   1.360   .     D
C2346  C2347   1.360   .     S
C2346  N2352   1.360   .     D
C2347  C2348   1.500   .     S
C2348  C2350   1.390   .     S
C2349  C2350   1.390   .     D
N2351  N2352   1.360   .     S
N2351  Fe2429  2.091   .     S
N2352  Fe2431  2.139   .     S
Fe2354 N1412   2.091   1_565 S
Fe2354 N1430   2.091   1_565 S
H2357  C2360   0.750   .     S
H2357  C2361   0.750   .     S
C2358  C2360   1.360   .     S
C2358  N2364   1.360   .     D
C2359  N2365   1.360   .     D
C2360  C3575   1.360   .     S
C2360  C2361   1.500   .     S
C2361  C2363   1.390   .     S
C2361  C3623   1.390   .     S
C2362  C2363   1.390   .     D
C2362  C3622   1.390   .     S
N2364  N3581   1.360   .     S
N2364  Fe1520  2.091   1_565 S
N2365  Fe2430  2.139   .     S
H2366  C2369   0.750   .     S
H2366  C2370   0.750   .     S
C2367  C2369   1.360   .     S
C2367  N2373   1.360   .     D
C2368  N2374   1.360   .     D
C2369  C3584   1.360   .     S
C2369  C2370   1.500   .     S
C2370  C2372   1.390   .     S
C2370  C3614   1.390   .     S
C2371  C2372   1.390   .     D
C2371  C3613   1.390   .     S
N2373  N3590   1.360   .     S
N2373  Fe2203  2.091   1_655 S
N2374  Fe2201  2.139   1_655 S
H2375  C2378   0.750   .     S
H2375  C2379   0.750   .     S
C2376  C2378   1.360   .     S
C2376  N2382   1.360   .     D
C2377  C2378   1.360   .     S
C2377  N2383   1.360   .     D
C2378  C2379   1.500   .     S
C2379  C2381   1.390   .     S
C2379  C2425   1.390   .     S
C2380  C2381   1.390   .     D
C2380  C2424   1.390   .     S
N2382  N2383   1.360   .     S
N2382  Fe1520  2.091   1_565 S
N2383  Fe2430  2.139   .     S
H2384  C2387   0.750   .     S
H2384  C2388   0.750   .     S
C2385  C2387   1.360   .     S
C2385  N2391   1.360   .     D
C2386  C2387   1.360   .     S
C2386  N2392   1.360   .     D
C2387  C2388   1.500   .     S
C2388  C2390   1.390   .     S
C2388  C2416   1.390   .     S
C2389  C2390   1.390   .     D
C2389  C2415   1.390   .     S
N2391  N2392   1.360   .     S
N2391  Fe2431  2.091   .     S
N2392  Fe2429  2.139   .     S
H2393  C2396   0.750   .     S
H2393  C2397   0.750   .     S
C2394  C2396   1.360   .     S
C2394  N2400   1.360   .     D
C2395  C3612   1.360   .     S
C2395  N2401   1.360   .     D
C2396  C2397   1.500   .     S
C2397  C2399   1.390   .     S
C2398  C2399   1.390   .     D
N2401  N3616   1.360   .     S
N2401  Fe2432  2.139   .     S
H2402  C2405   0.750   .     S
H2402  C2406   0.750   .     S
C2403  C2405   1.360   .     S
C2403  N2409   1.360   .     D
C2404  C3621   1.360   .     S
C2404  N2410   1.360   .     D
C2405  C2406   1.500   .     S
C2406  C2408   1.390   .     S
C2407  C2408   1.390   .     D
N2409  Fe2429  2.091   .     S
N2410  N3625   1.360   .     S
N2410  Fe2431  2.139   .     S
H2411  C2414   0.750   .     S
H2411  C2415   0.750   .     S
C2412  C2414   1.360   .     S
C2412  N2418   1.360   .     D
C2413  C2414   1.360   .     S
C2413  N2419   1.360   .     D
C2414  C2415   1.500   .     S
C2415  C2417   1.390   .     S
C2416  C2417   1.390   .     D
N2418  N2419   1.360   .     S
N2419  Fe2432  2.139   .     S
H2420  C2423   0.750   .     S
H2420  C2424   0.750   .     S
C2421  C2423   1.360   .     S
C2421  N2427   1.360   .     D
C2422  C2423   1.360   .     S
C2422  N2428   1.360   .     D
C2423  C2424   1.500   .     S
C2424  C2426   1.390   .     S
C2425  C2426   1.390   .     D
N2427  N2428   1.360   .     S
N2427  Fe2201  2.091   1_655 S
N2428  Fe2203  2.139   1_655 S
Fe2430 N1488   2.091   1_565 S
Fe2430 N1506   2.091   1_565 S
H2433  C2436   0.750   .     S
H2433  C2437   0.750   .     S
C2434  C2436   1.360   .     S
C2434  N2440   1.360   .     D
C2435  N2441   1.360   .     D
C2436  C3651   1.360   .     S
C2436  C2437   1.500   .     S
C2437  C2439   1.390   .     S
C2437  C3699   1.390   .     S
C2438  C2439   1.390   .     D
C2438  C3698   1.390   .     S
N2440  N3657   1.360   .     S
N2440  Fe2812  2.091   .     S
N2441  Fe2506  2.139   .     S
H2442  C2445   0.750   .     S
H2442  C2446   0.750   .     S
C2443  C2445   1.360   .     S
C2443  N2449   1.360   .     D
C2444  N2450   1.360   .     D
C2445  C3660   1.360   .     S
C2445  C2446   1.500   .     S
C2446  C2448   1.390   .     S
C2446  C3690   1.390   .     S
C2447  C2448   1.390   .     D
C2447  C3689   1.390   .     S
N2449  N3666   1.360   .     S
N2449  Fe2583  2.091   .     S
N2450  Fe2581  2.139   .     S
H2451  C2454   0.750   .     S
H2451  C2455   0.750   .     S
C2452  C2454   1.360   .     S
C2452  N2458   1.360   .     D
C2453  C2454   1.360   .     S
C2453  N2459   1.360   .     D
C2454  C2455   1.500   .     S
C2455  C2457   1.390   .     S
C2455  C2501   1.390   .     S
C2456  C2457   1.390   .     D
C2456  C2500   1.390   .     S
N2458  N2459   1.360   .     S
N2458  Fe2812  2.091   .     S
N2459  Fe2506  2.139   .     S
H2460  C2463   0.750   .     S
H2460  C2464   0.750   .     S
C2461  C2463   1.360   .     S
C2461  N2467   1.360   .     D
C2462  C2463   1.360   .     S
C2462  N2468   1.360   .     D
C2463  C2464   1.500   .     S
C2464  C2466   1.390   .     S
C2464  C2492   1.390   .     S
C2465  C2466   1.390   .     D
C2465  C2491   1.390   .     S
N2467  N2468   1.360   .     S
N2467  Fe2507  2.091   .     S
N2468  Fe2505  2.139   .     S
H2469  C2472   0.750   .     S
H2469  C2473   0.750   .     S
C2470  C2472   1.360   .     S
C2470  N2476   1.360   .     D
C2471  C3688   1.360   .     S
C2471  N2477   1.360   .     D
C2472  C2473   1.500   .     S
C2473  C2475   1.390   .     S
C2474  C2475   1.390   .     D
N2476  Fe3418  2.091   1_545 S
N2477  N3692   1.360   .     S
N2477  Fe2508  2.139   .     S
H2478  C2481   0.750   .     S
H2478  C2482   0.750   .     S
C2479  C2481   1.360   .     S
C2479  N2485   1.360   .     D
C2480  C3697   1.360   .     S
C2480  N2486   1.360   .     D
C2481  C2482   1.500   .     S
C2482  C2484   1.390   .     S
C2483  C2484   1.390   .     D
N2485  Fe2505  2.091   .     S
N2486  N3701   1.360   .     S
N2486  Fe2507  2.139   .     S
H2487  C2490   0.750   .     S
H2487  C2491   0.750   .     S
C2488  C2490   1.360   .     S
C2488  N2494   1.360   .     D
C2489  C2490   1.360   .     S
C2489  N2495   1.360   .     D
C2490  C2491   1.500   .     S
C2491  C2493   1.390   .     S
C2492  C2493   1.390   .     D
N2494  N2495   1.360   .     S
N2494  Fe3418  2.091   1_545 S
N2495  Fe2508  2.139   .     S
H2496  C2499   0.750   .     S
H2496  C2500   0.750   .     S
C2497  C2499   1.360   .     S
C2497  N2503   1.360   .     D
C2498  C2499   1.360   .     S
C2498  N2504   1.360   .     D
C2499  C2500   1.500   .     S
C2500  C2502   1.390   .     S
C2501  C2502   1.390   .     D
N2503  N2504   1.360   .     S
N2503  Fe2581  2.091   .     S
N2504  Fe2583  2.139   .     S
Fe2505 N2731   2.091   1_455 S
Fe2505 N2678   2.139   1_455 S
Fe2506 N2780   2.091   .     S
Fe2506 N2798   2.091   .     S
Fe2507 N2677   2.091   1_455 S
Fe2507 N2732   2.139   1_455 S
Fe2508 N3352   2.091   1_545 S
Fe2508 N3370   2.091   1_545 S
H2509  C2512   0.750   .     S
H2509  C2513   0.750   .     S
C2510  C2512   1.360   .     S
C2510  N2516   1.360   .     D
C2511  N2517   1.360   .     D
C2512  C3727   1.360   .     S
C2512  C2513   1.500   .     S
C2513  C2515   1.390   .     S
C2513  C3775   1.390   .     S
C2514  C2515   1.390   .     D
C2514  C3774   1.390   .     S
N2516  N3733   1.360   .     S
N2516  Fe2888  2.091   .     S
N2517  Fe2582  2.139   .     S
H2518  C2521   0.750   .     S
H2518  C2522   0.750   .     S
C2519  C2521   1.360   .     S
C2519  N2525   1.360   .     D
C2520  N2526   1.360   .     D
C2521  C3736   1.360   .     S
C2521  C2522   1.500   .     S
C2522  C2524   1.390   .     S
C2522  C3766   1.390   .     S
C2523  C2524   1.390   .     D
C2523  C3765   1.390   .     S
N2525  N3742   1.360   .     S
N2525  Fe2659  2.091   .     S
N2526  Fe2657  2.139   .     S
H2527  C2530   0.750   .     S
H2527  C2531   0.750   .     S
C2528  C2530   1.360   .     S
C2528  N2534   1.360   .     D
C2529  C2530   1.360   .     S
C2529  N2535   1.360   .     D
C2530  C2531   1.500   .     S
C2531  C2533   1.390   .     S
C2531  C2577   1.390   .     S
C2532  C2533   1.390   .     D
C2532  C2576   1.390   .     S
N2534  N2535   1.360   .     S
N2534  Fe2888  2.091   .     S
N2535  Fe2582  2.139   .     S
H2536  C2539   0.750   .     S
H2536  C2540   0.750   .     S
C2537  C2539   1.360   .     S
C2537  N2543   1.360   .     D
C2538  C2539   1.360   .     S
C2538  N2544   1.360   .     D
C2539  C2540   1.500   .     S
C2540  C2542   1.390   .     S
C2540  C2568   1.390   .     S
C2541  C2542   1.390   .     D
C2541  C2567   1.390   .     S
N2543  N2544   1.360   .     S
N2543  Fe2583  2.091   .     S
N2544  Fe2581  2.139   .     S
H2545  C2548   0.750   .     S
H2545  C2549   0.750   .     S
C2546  C2548   1.360   .     S
C2546  N2552   1.360   .     D
C2547  C3764   1.360   .     S
C2547  N2553   1.360   .     D
C2548  C2549   1.500   .     S
C2549  C2551   1.390   .     S
C2550  C2551   1.390   .     D
N2552  Fe3494  2.091   1_545 S
N2553  N3768   1.360   .     S
N2553  Fe2584  2.139   .     S
H2554  C2557   0.750   .     S
H2554  C2558   0.750   .     S
C2555  C2557   1.360   .     S
C2555  N2561   1.360   .     D
C2556  C3773   1.360   .     S
C2556  N2562   1.360   .     D
C2557  C2558   1.500   .     S
C2558  C2560   1.390   .     S
C2559  C2560   1.390   .     D
N2561  Fe2581  2.091   .     S
N2562  N3777   1.360   .     S
N2562  Fe2583  2.139   .     S
H2563  C2566   0.750   .     S
H2563  C2567   0.750   .     S
C2564  C2566   1.360   .     S
C2564  N2570   1.360   .     D
C2565  C2566   1.360   .     S
C2565  N2571   1.360   .     D
C2566  C2567   1.500   .     S
C2567  C2569   1.390   .     S
C2568  C2569   1.390   .     D
N2570  N2571   1.360   .     S
N2570  Fe3494  2.091   1_545 S
N2571  Fe2584  2.139   .     S
H2572  C2575   0.750   .     S
H2572  C2576   0.750   .     S
C2573  C2575   1.360   .     S
C2573  N2579   1.360   .     D
C2574  C2575   1.360   .     S
C2574  N2580   1.360   .     D
C2575  C2576   1.500   .     S
C2576  C2578   1.390   .     S
C2577  C2578   1.390   .     D
N2579  N2580   1.360   .     S
N2579  Fe2657  2.091   .     S
N2580  Fe2659  2.139   .     S
Fe2582 N2856   2.091   .     S
Fe2582 N2874   2.091   .     S
Fe2584 N3428   2.091   1_545 S
Fe2584 N3446   2.091   1_545 S
H2585  C2588   0.750   .     S
H2585  C2589   0.750   .     S
C2586  C2588   1.360   .     S
C2586  N2592   1.360   .     D
C2587  N2593   1.360   .     D
C2588  C3803   1.360   .     S
C2588  C2589   1.500   .     S
C2589  C2591   1.390   .     S
C2589  C3851   1.390   .     S
C2590  C2591   1.390   .     D
C2590  C3850   1.390   .     S
N2592  N3809   1.360   .     S
N2592  Fe2964  2.091   .     S
N2593  Fe2658  2.139   .     S
H2594  C2597   0.750   .     S
H2594  C2598   0.750   .     S
C2595  C2597   1.360   .     S
C2595  N2601   1.360   .     D
C2596  N2602   1.360   .     D
C2597  C3812   1.360   .     S
C2597  C2598   1.500   .     S
C2598  C2600   1.390   .     S
C2598  C3842   1.390   .     S
C2599  C2600   1.390   .     D
C2599  C3841   1.390   .     S
N2601  N3818   1.360   .     S
N2601  Fe2735  2.091   .     S
N2602  Fe2733  2.139   .     S
H2603  C2606   0.750   .     S
H2603  C2607   0.750   .     S
C2604  C2606   1.360   .     S
C2604  N2610   1.360   .     D
C2605  C2606   1.360   .     S
C2605  N2611   1.360   .     D
C2606  C2607   1.500   .     S
C2607  C2609   1.390   .     S
C2607  C2653   1.390   .     S
C2608  C2609   1.390   .     D
C2608  C2652   1.390   .     S
N2610  N2611   1.360   .     S
N2610  Fe2964  2.091   .     S
N2611  Fe2658  2.139   .     S
H2612  C2615   0.750   .     S
H2612  C2616   0.750   .     S
C2613  C2615   1.360   .     S
C2613  N2619   1.360   .     D
C2614  C2615   1.360   .     S
C2614  N2620   1.360   .     D
C2615  C2616   1.500   .     S
C2616  C2618   1.390   .     S
C2616  C2644   1.390   .     S
C2617  C2618   1.390   .     D
C2617  C2643   1.390   .     S
N2619  N2620   1.360   .     S
N2619  Fe2659  2.091   .     S
N2620  Fe2657  2.139   .     S
H2621  C2624   0.750   .     S
H2621  C2625   0.750   .     S
C2622  C2624   1.360   .     S
C2622  N2628   1.360   .     D
C2623  C3840   1.360   .     S
C2623  N2629   1.360   .     D
C2624  C2625   1.500   .     S
C2625  C2627   1.390   .     S
C2626  C2627   1.390   .     D
N2628  Fe3570  2.091   1_545 S
N2629  N3844   1.360   .     S
N2629  Fe2660  2.139   .     S
H2630  C2633   0.750   .     S
H2630  C2634   0.750   .     S
C2631  C2633   1.360   .     S
C2631  N2637   1.360   .     D
C2632  C3849   1.360   .     S
C2632  N2638   1.360   .     D
C2633  C2634   1.500   .     S
C2634  C2636   1.390   .     S
C2635  C2636   1.390   .     D
N2637  Fe2657  2.091   .     S
N2638  N3853   1.360   .     S
N2638  Fe2659  2.139   .     S
H2639  C2642   0.750   .     S
H2639  C2643   0.750   .     S
C2640  C2642   1.360   .     S
C2640  N2646   1.360   .     D
C2641  C2642   1.360   .     S
C2641  N2647   1.360   .     D
C2642  C2643   1.500   .     S
C2643  C2645   1.390   .     S
C2644  C2645   1.390   .     D
N2646  N2647   1.360   .     S
N2646  Fe3570  2.091   1_545 S
N2647  Fe2660  2.139   .     S
H2648  C2651   0.750   .     S
H2648  C2652   0.750   .     S
C2649  C2651   1.360   .     S
C2649  N2655   1.360   .     D
C2650  C2651   1.360   .     S
C2650  N2656   1.360   .     D
C2651  C2652   1.500   .     S
C2652  C2654   1.390   .     S
C2653  C2654   1.390   .     D
N2655  N2656   1.360   .     S
N2655  Fe2733  2.091   .     S
N2656  Fe2735  2.139   .     S
Fe2658 N2932   2.091   .     S
Fe2658 N2950   2.091   .     S
Fe2660 N3504   2.091   1_545 S
Fe2660 N3522   2.091   1_545 S
H2661  C2664   0.750   .     S
H2661  C2665   0.750   .     S
C2662  C2664   1.360   .     S
C2662  N2668   1.360   .     D
C2663  N2669   1.360   .     D
C2664  C3879   1.360   .     S
C2664  C2665   1.500   .     S
C2665  C2667   1.390   .     S
C2665  C3927   1.390   .     S
C2666  C2667   1.390   .     D
C2666  C3926   1.390   .     S
N2668  N3885   1.360   .     S
N2668  Fe3040  2.091   .     S
N2669  Fe2734  2.139   .     S
H2670  C2673   0.750   .     S
H2670  C2674   0.750   .     S
C2671  C2673   1.360   .     S
C2671  N2677   1.360   .     D
C2672  N2678   1.360   .     D
C2673  C3888   1.360   .     S
C2673  C2674   1.500   .     S
C2674  C2676   1.390   .     S
C2674  C3918   1.390   .     S
C2675  C2676   1.390   .     D
C2675  C3917   1.390   .     S
N2677  N3894   1.360   .     S
N2677  Fe2507  2.091   1_655 S
N2678  Fe2505  2.139   1_655 S
H2679  C2682   0.750   .     S
H2679  C2683   0.750   .     S
C2680  C2682   1.360   .     S
C2680  N2686   1.360   .     D
C2681  C2682   1.360   .     S
C2681  N2687   1.360   .     D
C2682  C2683   1.500   .     S
C2683  C2685   1.390   .     S
C2683  C2729   1.390   .     S
C2684  C2685   1.390   .     D
C2684  C2728   1.390   .     S
N2686  N2687   1.360   .     S
N2686  Fe3040  2.091   .     S
N2687  Fe2734  2.139   .     S
H2688  C2691   0.750   .     S
H2688  C2692   0.750   .     S
C2689  C2691   1.360   .     S
C2689  N2695   1.360   .     D
C2690  C2691   1.360   .     S
C2690  N2696   1.360   .     D
C2691  C2692   1.500   .     S
C2692  C2694   1.390   .     S
C2692  C2720   1.390   .     S
C2693  C2694   1.390   .     D
C2693  C2719   1.390   .     S
N2695  N2696   1.360   .     S
N2695  Fe2735  2.091   .     S
N2696  Fe2733  2.139   .     S
H2697  C2700   0.750   .     S
H2697  C2701   0.750   .     S
C2698  C2700   1.360   .     S
C2698  N2704   1.360   .     D
C2699  C3916   1.360   .     S
C2699  N2705   1.360   .     D
C2700  C2701   1.500   .     S
C2701  C2703   1.390   .     S
C2702  C2703   1.390   .     D
N2704  Fe3646  2.091   1_545 S
N2705  N3920   1.360   .     S
N2705  Fe2736  2.139   .     S
H2706  C2709   0.750   .     S
H2706  C2710   0.750   .     S
C2707  C2709   1.360   .     S
C2707  N2713   1.360   .     D
C2708  C3925   1.360   .     S
C2708  N2714   1.360   .     D
C2709  C2710   1.500   .     S
C2710  C2712   1.390   .     S
C2711  C2712   1.390   .     D
N2713  Fe2733  2.091   .     S
N2714  N3929   1.360   .     S
N2714  Fe2735  2.139   .     S
H2715  C2718   0.750   .     S
H2715  C2719   0.750   .     S
C2716  C2718   1.360   .     S
C2716  N2722   1.360   .     D
C2717  C2718   1.360   .     S
C2717  N2723   1.360   .     D
C2718  C2719   1.500   .     S
C2719  C2721   1.390   .     S
C2720  C2721   1.390   .     D
N2722  N2723   1.360   .     S
N2722  Fe3646  2.091   1_545 S
N2723  Fe2736  2.139   .     S
H2724  C2727   0.750   .     S
H2724  C2728   0.750   .     S
C2725  C2727   1.360   .     S
C2725  N2731   1.360   .     D
C2726  C2727   1.360   .     S
C2726  N2732   1.360   .     D
C2727  C2728   1.500   .     S
C2728  C2730   1.390   .     S
C2729  C2730   1.390   .     D
N2731  N2732   1.360   .     S
N2731  Fe2505  2.091   1_655 S
N2732  Fe2507  2.139   1_655 S
Fe2734 N3008   2.091   .     S
Fe2734 N3026   2.091   .     S
Fe2736 N3580   2.091   1_545 S
Fe2736 N3598   2.091   1_545 S
H2737  C2740   0.750   .     S
H2737  C2741   0.750   .     S
C2738  C2740   1.360   .     S
C2738  N2744   1.360   .     D
C2739  N2745   1.360   .     D
C2740  C3955   1.360   .     S
C2740  C2741   1.500   .     S
C2741  C2743   1.390   .     S
C2741  C4003   1.390   .     S
C2742  C2743   1.390   .     D
C2742  C4002   1.390   .     S
N2744  N3961   1.360   .     S
N2744  Fe3116  2.091   .     S
N2745  Fe2810  2.139   .     S
H2746  C2749   0.750   .     S
H2746  C2750   0.750   .     S
C2747  C2749   1.360   .     S
C2747  N2753   1.360   .     D
C2748  N2754   1.360   .     D
C2749  C3964   1.360   .     S
C2749  C2750   1.500   .     S
C2750  C2752   1.390   .     S
C2750  C3994   1.390   .     S
C2751  C2752   1.390   .     D
C2751  C3993   1.390   .     S
N2753  N3970   1.360   .     S
N2753  Fe2887  2.091   .     S
N2754  Fe2885  2.139   .     S
H2755  C2758   0.750   .     S
H2755  C2759   0.750   .     S
C2756  C2758   1.360   .     S
C2756  N2762   1.360   .     D
C2757  C2758   1.360   .     S
C2757  N2763   1.360   .     D
C2758  C2759   1.500   .     S
C2759  C2761   1.390   .     S
C2759  C2805   1.390   .     S
C2760  C2761   1.390   .     D
C2760  C2804   1.390   .     S
N2762  N2763   1.360   .     S
N2762  Fe3116  2.091   .     S
N2763  Fe2810  2.139   .     S
H2764  C2767   0.750   .     S
H2764  C2768   0.750   .     S
C2765  C2767   1.360   .     S
C2765  N2771   1.360   .     D
C2766  C2767   1.360   .     S
C2766  N2772   1.360   .     D
C2767  C2768   1.500   .     S
C2768  C2770   1.390   .     S
C2768  C2796   1.390   .     S
C2769  C2770   1.390   .     D
C2769  C2795   1.390   .     S
N2771  N2772   1.360   .     S
N2771  Fe2811  2.091   .     S
N2772  Fe2809  2.139   .     S
H2773  C2776   0.750   .     S
H2773  C2777   0.750   .     S
C2774  C2776   1.360   .     S
C2774  N2780   1.360   .     D
C2775  C3992   1.360   .     S
C2775  N2781   1.360   .     D
C2776  C2777   1.500   .     S
C2777  C2779   1.390   .     S
C2778  C2779   1.390   .     D
N2781  N3996   1.360   .     S
N2781  Fe2812  2.139   .     S
H2782  C2785   0.750   .     S
H2782  C2786   0.750   .     S
C2783  C2785   1.360   .     S
C2783  N2789   1.360   .     D
C2784  C4001   1.360   .     S
C2784  N2790   1.360   .     D
C2785  C2786   1.500   .     S
C2786  C2788   1.390   .     S
C2787  C2788   1.390   .     D
N2789  Fe2809  2.091   .     S
N2790  N4005   1.360   .     S
N2790  Fe2811  2.139   .     S
H2791  C2794   0.750   .     S
H2791  C2795   0.750   .     S
C2792  C2794   1.360   .     S
C2792  N2798   1.360   .     D
C2793  C2794   1.360   .     S
C2793  N2799   1.360   .     D
C2794  C2795   1.500   .     S
C2795  C2797   1.390   .     S
C2796  C2797   1.390   .     D
N2798  N2799   1.360   .     S
N2799  Fe2812  2.139   .     S
H2800  C2803   0.750   .     S
H2800  C2804   0.750   .     S
C2801  C2803   1.360   .     S
C2801  N2807   1.360   .     D
C2802  C2803   1.360   .     S
C2802  N2808   1.360   .     D
C2803  C2804   1.500   .     S
C2804  C2806   1.390   .     S
C2805  C2806   1.390   .     D
N2807  N2808   1.360   .     S
N2807  Fe2885  2.091   .     S
N2808  Fe2887  2.139   .     S
Fe2809 N3035   2.091   1_455 S
Fe2809 N2982   2.139   1_455 S
Fe2810 N3084   2.091   .     S
Fe2810 N3102   2.091   .     S
Fe2811 N2981   2.091   1_455 S
Fe2811 N3036   2.139   1_455 S
H2813  C2816   0.750   .     S
H2813  C2817   0.750   .     S
C2814  C2816   1.360   .     S
C2814  N2820   1.360   .     D
C2815  N2821   1.360   .     D
C2816  C4031   1.360   .     S
C2816  C2817   1.500   .     S
C2817  C2819   1.390   .     S
C2817  C4079   1.390   .     S
C2818  C2819   1.390   .     D
C2818  C4078   1.390   .     S
N2820  N4037   1.360   .     S
N2820  Fe3192  2.091   .     S
N2821  Fe2886  2.139   .     S
H2822  C2825   0.750   .     S
H2822  C2826   0.750   .     S
C2823  C2825   1.360   .     S
C2823  N2829   1.360   .     D
C2824  N2830   1.360   .     D
C2825  C4040   1.360   .     S
C2825  C2826   1.500   .     S
C2826  C2828   1.390   .     S
C2826  C4070   1.390   .     S
C2827  C2828   1.390   .     D
C2827  C4069   1.390   .     S
N2829  N4046   1.360   .     S
N2829  Fe2963  2.091   .     S
N2830  Fe2961  2.139   .     S
H2831  C2834   0.750   .     S
H2831  C2835   0.750   .     S
C2832  C2834   1.360   .     S
C2832  N2838   1.360   .     D
C2833  C2834   1.360   .     S
C2833  N2839   1.360   .     D
C2834  C2835   1.500   .     S
C2835  C2837   1.390   .     S
C2835  C2881   1.390   .     S
C2836  C2837   1.390   .     D
C2836  C2880   1.390   .     S
N2838  N2839   1.360   .     S
N2838  Fe3192  2.091   .     S
N2839  Fe2886  2.139   .     S
H2840  C2843   0.750   .     S
H2840  C2844   0.750   .     S
C2841  C2843   1.360   .     S
C2841  N2847   1.360   .     D
C2842  C2843   1.360   .     S
C2842  N2848   1.360   .     D
C2843  C2844   1.500   .     S
C2844  C2846   1.390   .     S
C2844  C2872   1.390   .     S
C2845  C2846   1.390   .     D
C2845  C2871   1.390   .     S
N2847  N2848   1.360   .     S
N2847  Fe2887  2.091   .     S
N2848  Fe2885  2.139   .     S
H2849  C2852   0.750   .     S
H2849  C2853   0.750   .     S
C2850  C2852   1.360   .     S
C2850  N2856   1.360   .     D
C2851  C4068   1.360   .     S
C2851  N2857   1.360   .     D
C2852  C2853   1.500   .     S
C2853  C2855   1.390   .     S
C2854  C2855   1.390   .     D
N2857  N4072   1.360   .     S
N2857  Fe2888  2.139   .     S
H2858  C2861   0.750   .     S
H2858  C2862   0.750   .     S
C2859  C2861   1.360   .     S
C2859  N2865   1.360   .     D
C2860  C4077   1.360   .     S
C2860  N2866   1.360   .     D
C2861  C2862   1.500   .     S
C2862  C2864   1.390   .     S
C2863  C2864   1.390   .     D
N2865  Fe2885  2.091   .     S
N2866  N4081   1.360   .     S
N2866  Fe2887  2.139   .     S
H2867  C2870   0.750   .     S
H2867  C2871   0.750   .     S
C2868  C2870   1.360   .     S
C2868  N2874   1.360   .     D
C2869  C2870   1.360   .     S
C2869  N2875   1.360   .     D
C2870  C2871   1.500   .     S
C2871  C2873   1.390   .     S
C2872  C2873   1.390   .     D
N2874  N2875   1.360   .     S
N2875  Fe2888  2.139   .     S
H2876  C2879   0.750   .     S
H2876  C2880   0.750   .     S
C2877  C2879   1.360   .     S
C2877  N2883   1.360   .     D
C2878  C2879   1.360   .     S
C2878  N2884   1.360   .     D
C2879  C2880   1.500   .     S
C2880  C2882   1.390   .     S
C2881  C2882   1.390   .     D
N2883  N2884   1.360   .     S
N2883  Fe2961  2.091   .     S
N2884  Fe2963  2.139   .     S
Fe2886 N3160   2.091   .     S
Fe2886 N3178   2.091   .     S
H2889  C2892   0.750   .     S
H2889  C2893   0.750   .     S
C2890  C2892   1.360   .     S
C2890  N2896   1.360   .     D
C2891  N2897   1.360   .     D
C2892  C4107   1.360   .     S
C2892  C2893   1.500   .     S
C2893  C2895   1.390   .     S
C2893  C4155   1.390   .     S
C2894  C2895   1.390   .     D
C2894  C4154   1.390   .     S
N2896  N4113   1.360   .     S
N2896  Fe3268  2.091   .     S
N2897  Fe2962  2.139   .     S
H2898  C2901   0.750   .     S
H2898  C2902   0.750   .     S
C2899  C2901   1.360   .     S
C2899  N2905   1.360   .     D
C2900  N2906   1.360   .     D
C2901  C4116   1.360   .     S
C2901  C2902   1.500   .     S
C2902  C2904   1.390   .     S
C2902  C4146   1.390   .     S
C2903  C2904   1.390   .     D
C2903  C4145   1.390   .     S
N2905  N4122   1.360   .     S
N2905  Fe3039  2.091   .     S
N2906  Fe3037  2.139   .     S
H2907  C2910   0.750   .     S
H2907  C2911   0.750   .     S
C2908  C2910   1.360   .     S
C2908  N2914   1.360   .     D
C2909  C2910   1.360   .     S
C2909  N2915   1.360   .     D
C2910  C2911   1.500   .     S
C2911  C2913   1.390   .     S
C2911  C2957   1.390   .     S
C2912  C2913   1.390   .     D
C2912  C2956   1.390   .     S
N2914  N2915   1.360   .     S
N2914  Fe3268  2.091   .     S
N2915  Fe2962  2.139   .     S
H2916  C2919   0.750   .     S
H2916  C2920   0.750   .     S
C2917  C2919   1.360   .     S
C2917  N2923   1.360   .     D
C2918  C2919   1.360   .     S
C2918  N2924   1.360   .     D
C2919  C2920   1.500   .     S
C2920  C2922   1.390   .     S
C2920  C2948   1.390   .     S
C2921  C2922   1.390   .     D
C2921  C2947   1.390   .     S
N2923  N2924   1.360   .     S
N2923  Fe2963  2.091   .     S
N2924  Fe2961  2.139   .     S
H2925  C2928   0.750   .     S
H2925  C2929   0.750   .     S
C2926  C2928   1.360   .     S
C2926  N2932   1.360   .     D
C2927  C4144   1.360   .     S
C2927  N2933   1.360   .     D
C2928  C2929   1.500   .     S
C2929  C2931   1.390   .     S
C2930  C2931   1.390   .     D
N2933  N4148   1.360   .     S
N2933  Fe2964  2.139   .     S
H2934  C2937   0.750   .     S
H2934  C2938   0.750   .     S
C2935  C2937   1.360   .     S
C2935  N2941   1.360   .     D
C2936  C4153   1.360   .     S
C2936  N2942   1.360   .     D
C2937  C2938   1.500   .     S
C2938  C2940   1.390   .     S
C2939  C2940   1.390   .     D
N2941  Fe2961  2.091   .     S
N2942  N4157   1.360   .     S
N2942  Fe2963  2.139   .     S
H2943  C2946   0.750   .     S
H2943  C2947   0.750   .     S
C2944  C2946   1.360   .     S
C2944  N2950   1.360   .     D
C2945  C2946   1.360   .     S
C2945  N2951   1.360   .     D
C2946  C2947   1.500   .     S
C2947  C2949   1.390   .     S
C2948  C2949   1.390   .     D
N2950  N2951   1.360   .     S
N2951  Fe2964  2.139   .     S
H2952  C2955   0.750   .     S
H2952  C2956   0.750   .     S
C2953  C2955   1.360   .     S
C2953  N2959   1.360   .     D
C2954  C2955   1.360   .     S
C2954  N2960   1.360   .     D
C2955  C2956   1.500   .     S
C2956  C2958   1.390   .     S
C2957  C2958   1.390   .     D
N2959  N2960   1.360   .     S
N2959  Fe3037  2.091   .     S
N2960  Fe3039  2.139   .     S
Fe2962 N3236   2.091   .     S
Fe2962 N3254   2.091   .     S
H2965  C2968   0.750   .     S
H2965  C2969   0.750   .     S
C2966  C2968   1.360   .     S
C2966  N2972   1.360   .     D
C2967  N2973   1.360   .     D
C2968  C4183   1.360   .     S
C2968  C2969   1.500   .     S
C2969  C2971   1.390   .     S
C2969  C4231   1.390   .     S
C2970  C2971   1.390   .     D
C2970  C4230   1.390   .     S
N2972  N4189   1.360   .     S
N2972  Fe3344  2.091   .     S
N2973  Fe3038  2.139   .     S
H2974  C2977   0.750   .     S
H2974  C2978   0.750   .     S
C2975  C2977   1.360   .     S
C2975  N2981   1.360   .     D
C2976  N2982   1.360   .     D
C2977  C4192   1.360   .     S
C2977  C2978   1.500   .     S
C2978  C2980   1.390   .     S
C2978  C4222   1.390   .     S
C2979  C2980   1.390   .     D
C2979  C4221   1.390   .     S
N2981  N4198   1.360   .     S
N2981  Fe2811  2.091   1_655 S
N2982  Fe2809  2.139   1_655 S
H2983  C2986   0.750   .     S
H2983  C2987   0.750   .     S
C2984  C2986   1.360   .     S
C2984  N2990   1.360   .     D
C2985  C2986   1.360   .     S
C2985  N2991   1.360   .     D
C2986  C2987   1.500   .     S
C2987  C2989   1.390   .     S
C2987  C3033   1.390   .     S
C2988  C2989   1.390   .     D
C2988  C3032   1.390   .     S
N2990  N2991   1.360   .     S
N2990  Fe3344  2.091   .     S
N2991  Fe3038  2.139   .     S
H2992  C2995   0.750   .     S
H2992  C2996   0.750   .     S
C2993  C2995   1.360   .     S
C2993  N2999   1.360   .     D
C2994  C2995   1.360   .     S
C2994  N3000   1.360   .     D
C2995  C2996   1.500   .     S
C2996  C2998   1.390   .     S
C2996  C3024   1.390   .     S
C2997  C2998   1.390   .     D
C2997  C3023   1.390   .     S
N2999  N3000   1.360   .     S
N2999  Fe3039  2.091   .     S
N3000  Fe3037  2.139   .     S
H3001  C3004   0.750   .     S
H3001  C3005   0.750   .     S
C3002  C3004   1.360   .     S
C3002  N3008   1.360   .     D
C3003  C4220   1.360   .     S
C3003  N3009   1.360   .     D
C3004  C3005   1.500   .     S
C3005  C3007   1.390   .     S
C3006  C3007   1.390   .     D
N3009  N4224   1.360   .     S
N3009  Fe3040  2.139   .     S
H3010  C3013   0.750   .     S
H3010  C3014   0.750   .     S
C3011  C3013   1.360   .     S
C3011  N3017   1.360   .     D
C3012  C4229   1.360   .     S
C3012  N3018   1.360   .     D
C3013  C3014   1.500   .     S
C3014  C3016   1.390   .     S
C3015  C3016   1.390   .     D
N3017  Fe3037  2.091   .     S
N3018  N4233   1.360   .     S
N3018  Fe3039  2.139   .     S
H3019  C3022   0.750   .     S
H3019  C3023   0.750   .     S
C3020  C3022   1.360   .     S
C3020  N3026   1.360   .     D
C3021  C3022   1.360   .     S
C3021  N3027   1.360   .     D
C3022  C3023   1.500   .     S
C3023  C3025   1.390   .     S
C3024  C3025   1.390   .     D
N3026  N3027   1.360   .     S
N3027  Fe3040  2.139   .     S
H3028  C3031   0.750   .     S
H3028  C3032   0.750   .     S
C3029  C3031   1.360   .     S
C3029  N3035   1.360   .     D
C3030  C3031   1.360   .     S
C3030  N3036   1.360   .     D
C3031  C3032   1.500   .     S
C3032  C3034   1.390   .     S
C3033  C3034   1.390   .     D
N3035  N3036   1.360   .     S
N3035  Fe2809  2.091   1_655 S
N3036  Fe2811  2.139   1_655 S
Fe3038 N3312   2.091   .     S
Fe3038 N3330   2.091   .     S
H3041  C3044   0.750   .     S
H3041  C3045   0.750   .     S
C3042  C3044   1.360   .     S
C3042  N3048   1.360   .     D
C3043  N3049   1.360   .     D
C3044  C4259   1.360   .     S
C3044  C3045   1.500   .     S
C3045  C3047   1.390   .     S
C3045  C4307   1.390   .     S
C3046  C3047   1.390   .     D
C3046  C4306   1.390   .     S
N3048  N4265   1.360   .     S
N3048  Fe3420  2.091   .     S
N3049  Fe3114  2.139   .     S
H3050  C3053   0.750   .     S
H3050  C3054   0.750   .     S
C3051  C3053   1.360   .     S
C3051  N3057   1.360   .     D
C3052  N3058   1.360   .     D
C3053  C4268   1.360   .     S
C3053  C3054   1.500   .     S
C3054  C3056   1.390   .     S
C3054  C4298   1.390   .     S
C3055  C3056   1.390   .     D
C3055  C4297   1.390   .     S
N3057  N4274   1.360   .     S
N3057  Fe3191  2.091   .     S
N3058  Fe3189  2.139   .     S
H3059  C3062   0.750   .     S
H3059  C3063   0.750   .     S
C3060  C3062   1.360   .     S
C3060  N3066   1.360   .     D
C3061  C3062   1.360   .     S
C3061  N3067   1.360   .     D
C3062  C3063   1.500   .     S
C3063  C3065   1.390   .     S
C3063  C3109   1.390   .     S
C3064  C3065   1.390   .     D
C3064  C3108   1.390   .     S
N3066  N3067   1.360   .     S
N3066  Fe3420  2.091   .     S
N3067  Fe3114  2.139   .     S
H3068  C3071   0.750   .     S
H3068  C3072   0.750   .     S
C3069  C3071   1.360   .     S
C3069  N3075   1.360   .     D
C3070  C3071   1.360   .     S
C3070  N3076   1.360   .     D
C3071  C3072   1.500   .     S
C3072  C3074   1.390   .     S
C3072  C3100   1.390   .     S
C3073  C3074   1.390   .     D
C3073  C3099   1.390   .     S
N3075  N3076   1.360   .     S
N3075  Fe3115  2.091   .     S
N3076  Fe3113  2.139   .     S
H3077  C3080   0.750   .     S
H3077  C3081   0.750   .     S
C3078  C3080   1.360   .     S
C3078  N3084   1.360   .     D
C3079  C4296   1.360   .     S
C3079  N3085   1.360   .     D
C3080  C3081   1.500   .     S
C3081  C3083   1.390   .     S
C3082  C3083   1.390   .     D
N3085  N4300   1.360   .     S
N3085  Fe3116  2.139   .     S
H3086  C3089   0.750   .     S
H3086  C3090   0.750   .     S
C3087  C3089   1.360   .     S
C3087  N3093   1.360   .     D
C3088  C4305   1.360   .     S
C3088  N3094   1.360   .     D
C3089  C3090   1.500   .     S
C3090  C3092   1.390   .     S
C3091  C3092   1.390   .     D
N3093  Fe3113  2.091   .     S
N3094  N4309   1.360   .     S
N3094  Fe3115  2.139   .     S
H3095  C3098   0.750   .     S
H3095  C3099   0.750   .     S
C3096  C3098   1.360   .     S
C3096  N3102   1.360   .     D
C3097  C3098   1.360   .     S
C3097  N3103   1.360   .     D
C3098  C3099   1.500   .     S
C3099  C3101   1.390   .     S
C3100  C3101   1.390   .     D
N3102  N3103   1.360   .     S
N3103  Fe3116  2.139   .     S
H3104  C3107   0.750   .     S
H3104  C3108   0.750   .     S
C3105  C3107   1.360   .     S
C3105  N3111   1.360   .     D
C3106  C3107   1.360   .     S
C3106  N3112   1.360   .     D
C3107  C3108   1.500   .     S
C3108  C3110   1.390   .     S
C3109  C3110   1.390   .     D
N3111  N3112   1.360   .     S
N3111  Fe3189  2.091   .     S
N3112  Fe3191  2.139   .     S
Fe3113 N3339   2.091   1_455 S
Fe3113 N3286   2.139   1_455 S
Fe3114 N3388   2.091   .     S
Fe3114 N3406   2.091   .     S
Fe3115 N3285   2.091   1_455 S
Fe3115 N3340   2.139   1_455 S
H3117  C3120   0.750   .     S
H3117  C3121   0.750   .     S
C3118  C3120   1.360   .     S
C3118  N3124   1.360   .     D
C3119  N3125   1.360   .     D
C3120  C4335   1.360   .     S
C3120  C3121   1.500   .     S
C3121  C3123   1.390   .     S
C3121  C4383   1.390   .     S
C3122  C3123   1.390   .     D
C3122  C4382   1.390   .     S
N3124  N4341   1.360   .     S
N3124  Fe3496  2.091   .     S
N3125  Fe3190  2.139   .     S
H3126  C3129   0.750   .     S
H3126  C3130   0.750   .     S
C3127  C3129   1.360   .     S
C3127  N3133   1.360   .     D
C3128  N3134   1.360   .     D
C3129  C4344   1.360   .     S
C3129  C3130   1.500   .     S
C3130  C3132   1.390   .     S
C3130  C4374   1.390   .     S
C3131  C3132   1.390   .     D
C3131  C4373   1.390   .     S
N3133  N4350   1.360   .     S
N3133  Fe3267  2.091   .     S
N3134  Fe3265  2.139   .     S
H3135  C3138   0.750   .     S
H3135  C3139   0.750   .     S
C3136  C3138   1.360   .     S
C3136  N3142   1.360   .     D
C3137  C3138   1.360   .     S
C3137  N3143   1.360   .     D
C3138  C3139   1.500   .     S
C3139  C3141   1.390   .     S
C3139  C3185   1.390   .     S
C3140  C3141   1.390   .     D
C3140  C3184   1.390   .     S
N3142  N3143   1.360   .     S
N3142  Fe3496  2.091   .     S
N3143  Fe3190  2.139   .     S
H3144  C3147   0.750   .     S
H3144  C3148   0.750   .     S
C3145  C3147   1.360   .     S
C3145  N3151   1.360   .     D
C3146  C3147   1.360   .     S
C3146  N3152   1.360   .     D
C3147  C3148   1.500   .     S
C3148  C3150   1.390   .     S
C3148  C3176   1.390   .     S
C3149  C3150   1.390   .     D
C3149  C3175   1.390   .     S
N3151  N3152   1.360   .     S
N3151  Fe3191  2.091   .     S
N3152  Fe3189  2.139   .     S
H3153  C3156   0.750   .     S
H3153  C3157   0.750   .     S
C3154  C3156   1.360   .     S
C3154  N3160   1.360   .     D
C3155  C4372   1.360   .     S
C3155  N3161   1.360   .     D
C3156  C3157   1.500   .     S
C3157  C3159   1.390   .     S
C3158  C3159   1.390   .     D
N3161  N4376   1.360   .     S
N3161  Fe3192  2.139   .     S
H3162  C3165   0.750   .     S
H3162  C3166   0.750   .     S
C3163  C3165   1.360   .     S
C3163  N3169   1.360   .     D
C3164  C4381   1.360   .     S
C3164  N3170   1.360   .     D
C3165  C3166   1.500   .     S
C3166  C3168   1.390   .     S
C3167  C3168   1.390   .     D
N3169  Fe3189  2.091   .     S
N3170  N4385   1.360   .     S
N3170  Fe3191  2.139   .     S
H3171  C3174   0.750   .     S
H3171  C3175   0.750   .     S
C3172  C3174   1.360   .     S
C3172  N3178   1.360   .     D
C3173  C3174   1.360   .     S
C3173  N3179   1.360   .     D
C3174  C3175   1.500   .     S
C3175  C3177   1.390   .     S
C3176  C3177   1.390   .     D
N3178  N3179   1.360   .     S
N3179  Fe3192  2.139   .     S
H3180  C3183   0.750   .     S
H3180  C3184   0.750   .     S
C3181  C3183   1.360   .     S
C3181  N3187   1.360   .     D
C3182  C3183   1.360   .     S
C3182  N3188   1.360   .     D
C3183  C3184   1.500   .     S
C3184  C3186   1.390   .     S
C3185  C3186   1.390   .     D
N3187  N3188   1.360   .     S
N3187  Fe3265  2.091   .     S
N3188  Fe3267  2.139   .     S
Fe3190 N3464   2.091   .     S
Fe3190 N3482   2.091   .     S
H3193  C3196   0.750   .     S
H3193  C3197   0.750   .     S
C3194  C3196   1.360   .     S
C3194  N3200   1.360   .     D
C3195  N3201   1.360   .     D
C3196  C4411   1.360   .     S
C3196  C3197   1.500   .     S
C3197  C3199   1.390   .     S
C3197  C4459   1.390   .     S
C3198  C3199   1.390   .     D
C3198  C4458   1.390   .     S
N3200  N4417   1.360   .     S
N3200  Fe3572  2.091   .     S
N3201  Fe3266  2.139   .     S
H3202  C3205   0.750   .     S
H3202  C3206   0.750   .     S
C3203  C3205   1.360   .     S
C3203  N3209   1.360   .     D
C3204  N3210   1.360   .     D
C3205  C4420   1.360   .     S
C3205  C3206   1.500   .     S
C3206  C3208   1.390   .     S
C3206  C4450   1.390   .     S
C3207  C3208   1.390   .     D
C3207  C4449   1.390   .     S
N3209  N4426   1.360   .     S
N3209  Fe3343  2.091   .     S
N3210  Fe3341  2.139   .     S
H3211  C3214   0.750   .     S
H3211  C3215   0.750   .     S
C3212  C3214   1.360   .     S
C3212  N3218   1.360   .     D
C3213  C3214   1.360   .     S
C3213  N3219   1.360   .     D
C3214  C3215   1.500   .     S
C3215  C3217   1.390   .     S
C3215  C3261   1.390   .     S
C3216  C3217   1.390   .     D
C3216  C3260   1.390   .     S
N3218  N3219   1.360   .     S
N3218  Fe3572  2.091   .     S
N3219  Fe3266  2.139   .     S
H3220  C3223   0.750   .     S
H3220  C3224   0.750   .     S
C3221  C3223   1.360   .     S
C3221  N3227   1.360   .     D
C3222  C3223   1.360   .     S
C3222  N3228   1.360   .     D
C3223  C3224   1.500   .     S
C3224  C3226   1.390   .     S
C3224  C3252   1.390   .     S
C3225  C3226   1.390   .     D
C3225  C3251   1.390   .     S
N3227  N3228   1.360   .     S
N3227  Fe3267  2.091   .     S
N3228  Fe3265  2.139   .     S
H3229  C3232   0.750   .     S
H3229  C3233   0.750   .     S
C3230  C3232   1.360   .     S
C3230  N3236   1.360   .     D
C3231  C4448   1.360   .     S
C3231  N3237   1.360   .     D
C3232  C3233   1.500   .     S
C3233  C3235   1.390   .     S
C3234  C3235   1.390   .     D
N3237  N4452   1.360   .     S
N3237  Fe3268  2.139   .     S
H3238  C3241   0.750   .     S
H3238  C3242   0.750   .     S
C3239  C3241   1.360   .     S
C3239  N3245   1.360   .     D
C3240  C4457   1.360   .     S
C3240  N3246   1.360   .     D
C3241  C3242   1.500   .     S
C3242  C3244   1.390   .     S
C3243  C3244   1.390   .     D
N3245  Fe3265  2.091   .     S
N3246  N4461   1.360   .     S
N3246  Fe3267  2.139   .     S
H3247  C3250   0.750   .     S
H3247  C3251   0.750   .     S
C3248  C3250   1.360   .     S
C3248  N3254   1.360   .     D
C3249  C3250   1.360   .     S
C3249  N3255   1.360   .     D
C3250  C3251   1.500   .     S
C3251  C3253   1.390   .     S
C3252  C3253   1.390   .     D
N3254  N3255   1.360   .     S
N3255  Fe3268  2.139   .     S
H3256  C3259   0.750   .     S
H3256  C3260   0.750   .     S
C3257  C3259   1.360   .     S
C3257  N3263   1.360   .     D
C3258  C3259   1.360   .     S
C3258  N3264   1.360   .     D
C3259  C3260   1.500   .     S
C3260  C3262   1.390   .     S
C3261  C3262   1.390   .     D
N3263  N3264   1.360   .     S
N3263  Fe3341  2.091   .     S
N3264  Fe3343  2.139   .     S
Fe3266 N3540   2.091   .     S
Fe3266 N3558   2.091   .     S
H3269  C3272   0.750   .     S
H3269  C3273   0.750   .     S
C3270  C3272   1.360   .     S
C3270  N3276   1.360   .     D
C3271  N3277   1.360   .     D
C3272  C4487   1.360   .     S
C3272  C3273   1.500   .     S
C3273  C3275   1.390   .     S
C3273  C4535   1.390   .     S
C3274  C3275   1.390   .     D
C3274  C4534   1.390   .     S
N3276  N4493   1.360   .     S
N3276  Fe3648  2.091   .     S
N3277  Fe3342  2.139   .     S
H3278  C3281   0.750   .     S
H3278  C3282   0.750   .     S
C3279  C3281   1.360   .     S
C3279  N3285   1.360   .     D
C3280  N3286   1.360   .     D
C3281  C4496   1.360   .     S
C3281  C3282   1.500   .     S
C3282  C3284   1.390   .     S
C3282  C4526   1.390   .     S
C3283  C3284   1.390   .     D
C3283  C4525   1.390   .     S
N3285  N4502   1.360   .     S
N3285  Fe3115  2.091   1_655 S
N3286  Fe3113  2.139   1_655 S
H3287  C3290   0.750   .     S
H3287  C3291   0.750   .     S
C3288  C3290   1.360   .     S
C3288  N3294   1.360   .     D
C3289  C3290   1.360   .     S
C3289  N3295   1.360   .     D
C3290  C3291   1.500   .     S
C3291  C3293   1.390   .     S
C3291  C3337   1.390   .     S
C3292  C3293   1.390   .     D
C3292  C3336   1.390   .     S
N3294  N3295   1.360   .     S
N3294  Fe3648  2.091   .     S
N3295  Fe3342  2.139   .     S
H3296  C3299   0.750   .     S
H3296  C3300   0.750   .     S
C3297  C3299   1.360   .     S
C3297  N3303   1.360   .     D
C3298  C3299   1.360   .     S
C3298  N3304   1.360   .     D
C3299  C3300   1.500   .     S
C3300  C3302   1.390   .     S
C3300  C3328   1.390   .     S
C3301  C3302   1.390   .     D
C3301  C3327   1.390   .     S
N3303  N3304   1.360   .     S
N3303  Fe3343  2.091   .     S
N3304  Fe3341  2.139   .     S
H3305  C3308   0.750   .     S
H3305  C3309   0.750   .     S
C3306  C3308   1.360   .     S
C3306  N3312   1.360   .     D
C3307  C4524   1.360   .     S
C3307  N3313   1.360   .     D
C3308  C3309   1.500   .     S
C3309  C3311   1.390   .     S
C3310  C3311   1.390   .     D
N3313  N4528   1.360   .     S
N3313  Fe3344  2.139   .     S
H3314  C3317   0.750   .     S
H3314  C3318   0.750   .     S
C3315  C3317   1.360   .     S
C3315  N3321   1.360   .     D
C3316  C4533   1.360   .     S
C3316  N3322   1.360   .     D
C3317  C3318   1.500   .     S
C3318  C3320   1.390   .     S
C3319  C3320   1.390   .     D
N3321  Fe3341  2.091   .     S
N3322  N4537   1.360   .     S
N3322  Fe3343  2.139   .     S
H3323  C3326   0.750   .     S
H3323  C3327   0.750   .     S
C3324  C3326   1.360   .     S
C3324  N3330   1.360   .     D
C3325  C3326   1.360   .     S
C3325  N3331   1.360   .     D
C3326  C3327   1.500   .     S
C3327  C3329   1.390   .     S
C3328  C3329   1.390   .     D
N3330  N3331   1.360   .     S
N3331  Fe3344  2.139   .     S
H3332  C3335   0.750   .     S
H3332  C3336   0.750   .     S
C3333  C3335   1.360   .     S
C3333  N3339   1.360   .     D
C3334  C3335   1.360   .     S
C3334  N3340   1.360   .     D
C3335  C3336   1.500   .     S
C3336  C3338   1.390   .     S
C3337  C3338   1.390   .     D
N3339  N3340   1.360   .     S
N3339  Fe3113  2.091   1_655 S
N3340  Fe3115  2.139   1_655 S
Fe3342 N3616   2.091   .     S
Fe3342 N3634   2.091   .     S
H3345  C3348   0.750   .     S
H3345  C3349   0.750   .     S
C3346  C3348   1.360   .     S
C3346  N3352   1.360   .     D
C3347  N3353   1.360   .     D
C3348  C4563   1.360   .     S
C3348  C3349   1.500   .     S
C3349  C3351   1.390   .     S
C3349  C4611   1.390   .     S
C3350  C3351   1.390   .     D
C3350  C4610   1.390   .     S
N3352  N4569   1.360   .     S
N3352  Fe2508  2.091   1_565 S
N3353  Fe3418  2.139   .     S
H3354  C3357   0.750   .     S
H3354  C3358   0.750   .     S
C3355  C3357   1.360   .     S
C3355  N3361   1.360   .     D
C3356  N3362   1.360   .     D
C3357  C4572   1.360   .     S
C3357  C3358   1.500   .     S
C3358  C3360   1.390   .     S
C3358  C4602   1.390   .     S
C3359  C3360   1.390   .     D
C3359  C4601   1.390   .     S
N3361  N4578   1.360   .     S
N3361  Fe3495  2.091   .     S
N3362  Fe3493  2.139   .     S
H3363  C3366   0.750   .     S
H3363  C3367   0.750   .     S
C3364  C3366   1.360   .     S
C3364  N3370   1.360   .     D
C3365  C3366   1.360   .     S
C3365  N3371   1.360   .     D
C3366  C3367   1.500   .     S
C3367  C3369   1.390   .     S
C3367  C3413   1.390   .     S
C3368  C3369   1.390   .     D
C3368  C3412   1.390   .     S
N3370  N3371   1.360   .     S
N3370  Fe2508  2.091   1_565 S
N3371  Fe3418  2.139   .     S
H3372  C3375   0.750   .     S
H3372  C3376   0.750   .     S
C3373  C3375   1.360   .     S
C3373  N3379   1.360   .     D
C3374  C3375   1.360   .     S
C3374  N3380   1.360   .     D
C3375  C3376   1.500   .     S
C3376  C3378   1.390   .     S
C3376  C3404   1.390   .     S
C3377  C3378   1.390   .     D
C3377  C3403   1.390   .     S
N3379  N3380   1.360   .     S
N3379  Fe3419  2.091   .     S
N3380  Fe3417  2.139   .     S
H3381  C3384   0.750   .     S
H3381  C3385   0.750   .     S
C3382  C3384   1.360   .     S
C3382  N3388   1.360   .     D
C3383  C4600   1.360   .     S
C3383  N3389   1.360   .     D
C3384  C3385   1.500   .     S
C3385  C3387   1.390   .     S
C3386  C3387   1.390   .     D
N3389  N4604   1.360   .     S
N3389  Fe3420  2.139   .     S
H3390  C3393   0.750   .     S
H3390  C3394   0.750   .     S
C3391  C3393   1.360   .     S
C3391  N3397   1.360   .     D
C3392  C4609   1.360   .     S
C3392  N3398   1.360   .     D
C3393  C3394   1.500   .     S
C3394  C3396   1.390   .     S
C3395  C3396   1.390   .     D
N3397  Fe3417  2.091   .     S
N3398  N4613   1.360   .     S
N3398  Fe3419  2.139   .     S
H3399  C3402   0.750   .     S
H3399  C3403   0.750   .     S
C3400  C3402   1.360   .     S
C3400  N3406   1.360   .     D
C3401  C3402   1.360   .     S
C3401  N3407   1.360   .     D
C3402  C3403   1.500   .     S
C3403  C3405   1.390   .     S
C3404  C3405   1.390   .     D
N3406  N3407   1.360   .     S
N3407  Fe3420  2.139   .     S
H3408  C3411   0.750   .     S
H3408  C3412   0.750   .     S
C3409  C3411   1.360   .     S
C3409  N3415   1.360   .     D
C3410  C3411   1.360   .     S
C3410  N3416   1.360   .     D
C3411  C3412   1.500   .     S
C3412  C3414   1.390   .     S
C3413  C3414   1.390   .     D
N3415  N3416   1.360   .     S
N3415  Fe3493  2.091   .     S
N3416  Fe3495  2.139   .     S
Fe3417 N3643   2.091   1_455 S
Fe3417 N3590   2.139   1_455 S
Fe3418 N2476   2.091   1_565 S
Fe3418 N2494   2.091   1_565 S
Fe3419 N3589   2.091   1_455 S
Fe3419 N3644   2.139   1_455 S
H3421  C3424   0.750   .     S
H3421  C3425   0.750   .     S
C3422  C3424   1.360   .     S
C3422  N3428   1.360   .     D
C3423  N3429   1.360   .     D
C3424  C4639   1.360   .     S
C3424  C3425   1.500   .     S
C3425  C3427   1.390   .     S
C3425  C4687   1.390   .     S
C3426  C3427   1.390   .     D
C3426  C4686   1.390   .     S
N3428  N4645   1.360   .     S
N3428  Fe2584  2.091   1_565 S
N3429  Fe3494  2.139   .     S
H3430  C3433   0.750   .     S
H3430  C3434   0.750   .     S
C3431  C3433   1.360   .     S
C3431  N3437   1.360   .     D
C3432  N3438   1.360   .     D
C3433  C4648   1.360   .     S
C3433  C3434   1.500   .     S
C3434  C3436   1.390   .     S
C3434  C4678   1.390   .     S
C3435  C3436   1.390   .     D
C3435  C4677   1.390   .     S
N3437  N4654   1.360   .     S
N3437  Fe3571  2.091   .     S
N3438  Fe3569  2.139   .     S
H3439  C3442   0.750   .     S
H3439  C3443   0.750   .     S
C3440  C3442   1.360   .     S
C3440  N3446   1.360   .     D
C3441  C3442   1.360   .     S
C3441  N3447   1.360   .     D
C3442  C3443   1.500   .     S
C3443  C3445   1.390   .     S
C3443  C3489   1.390   .     S
C3444  C3445   1.390   .     D
C3444  C3488   1.390   .     S
N3446  N3447   1.360   .     S
N3446  Fe2584  2.091   1_565 S
N3447  Fe3494  2.139   .     S
H3448  C3451   0.750   .     S
H3448  C3452   0.750   .     S
C3449  C3451   1.360   .     S
C3449  N3455   1.360   .     D
C3450  C3451   1.360   .     S
C3450  N3456   1.360   .     D
C3451  C3452   1.500   .     S
C3452  C3454   1.390   .     S
C3452  C3480   1.390   .     S
C3453  C3454   1.390   .     D
C3453  C3479   1.390   .     S
N3455  N3456   1.360   .     S
N3455  Fe3495  2.091   .     S
N3456  Fe3493  2.139   .     S
H3457  C3460   0.750   .     S
H3457  C3461   0.750   .     S
C3458  C3460   1.360   .     S
C3458  N3464   1.360   .     D
C3459  C4676   1.360   .     S
C3459  N3465   1.360   .     D
C3460  C3461   1.500   .     S
C3461  C3463   1.390   .     S
C3462  C3463   1.390   .     D
N3465  N4680   1.360   .     S
N3465  Fe3496  2.139   .     S
H3466  C3469   0.750   .     S
H3466  C3470   0.750   .     S
C3467  C3469   1.360   .     S
C3467  N3473   1.360   .     D
C3468  C4685   1.360   .     S
C3468  N3474   1.360   .     D
C3469  C3470   1.500   .     S
C3470  C3472   1.390   .     S
C3471  C3472   1.390   .     D
N3473  Fe3493  2.091   .     S
N3474  N4689   1.360   .     S
N3474  Fe3495  2.139   .     S
H3475  C3478   0.750   .     S
H3475  C3479   0.750   .     S
C3476  C3478   1.360   .     S
C3476  N3482   1.360   .     D
C3477  C3478   1.360   .     S
C3477  N3483   1.360   .     D
C3478  C3479   1.500   .     S
C3479  C3481   1.390   .     S
C3480  C3481   1.390   .     D
N3482  N3483   1.360   .     S
N3483  Fe3496  2.139   .     S
H3484  C3487   0.750   .     S
H3484  C3488   0.750   .     S
C3485  C3487   1.360   .     S
C3485  N3491   1.360   .     D
C3486  C3487   1.360   .     S
C3486  N3492   1.360   .     D
C3487  C3488   1.500   .     S
C3488  C3490   1.390   .     S
C3489  C3490   1.390   .     D
N3491  N3492   1.360   .     S
N3491  Fe3569  2.091   .     S
N3492  Fe3571  2.139   .     S
Fe3494 N2552   2.091   1_565 S
Fe3494 N2570   2.091   1_565 S
H3497  C3500   0.750   .     S
H3497  C3501   0.750   .     S
C3498  C3500   1.360   .     S
C3498  N3504   1.360   .     D
C3499  N3505   1.360   .     D
C3500  C4715   1.360   .     S
C3500  C3501   1.500   .     S
C3501  C3503   1.390   .     S
C3501  C4763   1.390   .     S
C3502  C3503   1.390   .     D
C3502  C4762   1.390   .     S
N3504  N4721   1.360   .     S
N3504  Fe2660  2.091   1_565 S
N3505  Fe3570  2.139   .     S
H3506  C3509   0.750   .     S
H3506  C3510   0.750   .     S
C3507  C3509   1.360   .     S
C3507  N3513   1.360   .     D
C3508  N3514   1.360   .     D
C3509  C4724   1.360   .     S
C3509  C3510   1.500   .     S
C3510  C3512   1.390   .     S
C3510  C4754   1.390   .     S
C3511  C3512   1.390   .     D
C3511  C4753   1.390   .     S
N3513  N4730   1.360   .     S
N3513  Fe3647  2.091   .     S
N3514  Fe3645  2.139   .     S
H3515  C3518   0.750   .     S
H3515  C3519   0.750   .     S
C3516  C3518   1.360   .     S
C3516  N3522   1.360   .     D
C3517  C3518   1.360   .     S
C3517  N3523   1.360   .     D
C3518  C3519   1.500   .     S
C3519  C3521   1.390   .     S
C3519  C3565   1.390   .     S
C3520  C3521   1.390   .     D
C3520  C3564   1.390   .     S
N3522  N3523   1.360   .     S
N3522  Fe2660  2.091   1_565 S
N3523  Fe3570  2.139   .     S
H3524  C3527   0.750   .     S
H3524  C3528   0.750   .     S
C3525  C3527   1.360   .     S
C3525  N3531   1.360   .     D
C3526  C3527   1.360   .     S
C3526  N3532   1.360   .     D
C3527  C3528   1.500   .     S
C3528  C3530   1.390   .     S
C3528  C3556   1.390   .     S
C3529  C3530   1.390   .     D
C3529  C3555   1.390   .     S
N3531  N3532   1.360   .     S
N3531  Fe3571  2.091   .     S
N3532  Fe3569  2.139   .     S
H3533  C3536   0.750   .     S
H3533  C3537   0.750   .     S
C3534  C3536   1.360   .     S
C3534  N3540   1.360   .     D
C3535  C4752   1.360   .     S
C3535  N3541   1.360   .     D
C3536  C3537   1.500   .     S
C3537  C3539   1.390   .     S
C3538  C3539   1.390   .     D
N3541  N4756   1.360   .     S
N3541  Fe3572  2.139   .     S
H3542  C3545   0.750   .     S
H3542  C3546   0.750   .     S
C3543  C3545   1.360   .     S
C3543  N3549   1.360   .     D
C3544  C4761   1.360   .     S
C3544  N3550   1.360   .     D
C3545  C3546   1.500   .     S
C3546  C3548   1.390   .     S
C3547  C3548   1.390   .     D
N3549  Fe3569  2.091   .     S
N3550  N4765   1.360   .     S
N3550  Fe3571  2.139   .     S
H3551  C3554   0.750   .     S
H3551  C3555   0.750   .     S
C3552  C3554   1.360   .     S
C3552  N3558   1.360   .     D
C3553  C3554   1.360   .     S
C3553  N3559   1.360   .     D
C3554  C3555   1.500   .     S
C3555  C3557   1.390   .     S
C3556  C3557   1.390   .     D
N3558  N3559   1.360   .     S
N3559  Fe3572  2.139   .     S
H3560  C3563   0.750   .     S
H3560  C3564   0.750   .     S
C3561  C3563   1.360   .     S
C3561  N3567   1.360   .     D
C3562  C3563   1.360   .     S
C3562  N3568   1.360   .     D
C3563  C3564   1.500   .     S
C3564  C3566   1.390   .     S
C3565  C3566   1.390   .     D
N3567  N3568   1.360   .     S
N3567  Fe3645  2.091   .     S
N3568  Fe3647  2.139   .     S
Fe3570 N2628   2.091   1_565 S
Fe3570 N2646   2.091   1_565 S
H3573  C3576   0.750   .     S
H3573  C3577   0.750   .     S
C3574  C3576   1.360   .     S
C3574  N3580   1.360   .     D
C3575  N3581   1.360   .     D
C3576  C4791   1.360   .     S
C3576  C3577   1.500   .     S
C3577  C3579   1.390   .     S
C3577  C4839   1.390   .     S
C3578  C3579   1.390   .     D
C3578  C4838   1.390   .     S
N3580  N4797   1.360   .     S
N3580  Fe2736  2.091   1_565 S
N3581  Fe3646  2.139   .     S
H3582  C3585   0.750   .     S
H3582  C3586   0.750   .     S
C3583  C3585   1.360   .     S
C3583  N3589   1.360   .     D
C3584  N3590   1.360   .     D
C3585  C4800   1.360   .     S
C3585  C3586   1.500   .     S
C3586  C3588   1.390   .     S
C3586  C4830   1.390   .     S
C3587  C3588   1.390   .     D
C3587  C4829   1.390   .     S
N3589  N4806   1.360   .     S
N3589  Fe3419  2.091   1_655 S
N3590  Fe3417  2.139   1_655 S
H3591  C3594   0.750   .     S
H3591  C3595   0.750   .     S
C3592  C3594   1.360   .     S
C3592  N3598   1.360   .     D
C3593  C3594   1.360   .     S
C3593  N3599   1.360   .     D
C3594  C3595   1.500   .     S
C3595  C3597   1.390   .     S
C3595  C3641   1.390   .     S
C3596  C3597   1.390   .     D
C3596  C3640   1.390   .     S
N3598  N3599   1.360   .     S
N3598  Fe2736  2.091   1_565 S
N3599  Fe3646  2.139   .     S
H3600  C3603   0.750   .     S
H3600  C3604   0.750   .     S
C3601  C3603   1.360   .     S
C3601  N3607   1.360   .     D
C3602  C3603   1.360   .     S
C3602  N3608   1.360   .     D
C3603  C3604   1.500   .     S
C3604  C3606   1.390   .     S
C3604  C3632   1.390   .     S
C3605  C3606   1.390   .     D
C3605  C3631   1.390   .     S
N3607  N3608   1.360   .     S
N3607  Fe3647  2.091   .     S
N3608  Fe3645  2.139   .     S
H3609  C3612   0.750   .     S
H3609  C3613   0.750   .     S
C3610  C3612   1.360   .     S
C3610  N3616   1.360   .     D
C3611  C4828   1.360   .     S
C3611  N3617   1.360   .     D
C3612  C3613   1.500   .     S
C3613  C3615   1.390   .     S
C3614  C3615   1.390   .     D
N3617  N4832   1.360   .     S
N3617  Fe3648  2.139   .     S
H3618  C3621   0.750   .     S
H3618  C3622   0.750   .     S
C3619  C3621   1.360   .     S
C3619  N3625   1.360   .     D
C3620  C4837   1.360   .     S
C3620  N3626   1.360   .     D
C3621  C3622   1.500   .     S
C3622  C3624   1.390   .     S
C3623  C3624   1.390   .     D
N3625  Fe3645  2.091   .     S
N3626  N4841   1.360   .     S
N3626  Fe3647  2.139   .     S
H3627  C3630   0.750   .     S
H3627  C3631   0.750   .     S
C3628  C3630   1.360   .     S
C3628  N3634   1.360   .     D
C3629  C3630   1.360   .     S
C3629  N3635   1.360   .     D
C3630  C3631   1.500   .     S
C3631  C3633   1.390   .     S
C3632  C3633   1.390   .     D
N3634  N3635   1.360   .     S
N3635  Fe3648  2.139   .     S
H3636  C3639   0.750   .     S
H3636  C3640   0.750   .     S
C3637  C3639   1.360   .     S
C3637  N3643   1.360   .     D
C3638  C3639   1.360   .     S
C3638  N3644   1.360   .     D
C3639  C3640   1.500   .     S
C3640  C3642   1.390   .     S
C3641  C3642   1.390   .     D
N3643  N3644   1.360   .     S
N3643  Fe3417  2.091   1_655 S
N3644  Fe3419  2.139   1_655 S
Fe3646 N2704   2.091   1_565 S
Fe3646 N2722   2.091   1_565 S
H3649  C3652   0.750   .     S
H3649  C3653   0.750   .     S
C3650  C3652   1.360   .     S
C3650  N3656   1.360   .     D
C3651  N3657   1.360   .     D
C3652  C3      1.360   1_556 S
C3652  C3653   1.500   .     S
C3653  C3655   1.390   .     S
C3653  C51     1.390   1_556 S
C3654  C3655   1.390   .     D
C3654  C50     1.390   1_556 S
N3656  N9      1.360   1_556 S
N3656  Fe4028  2.091   .     S
N3657  Fe3722  2.139   .     S
H3658  C3661   0.750   .     S
H3658  C3662   0.750   .     S
C3659  C3661   1.360   .     S
C3659  N3665   1.360   .     D
C3660  N3666   1.360   .     D
C3661  C12     1.360   1_556 S
C3661  C3662   1.500   .     S
C3662  C3664   1.390   .     S
C3662  C42     1.390   1_556 S
C3663  C3664   1.390   .     D
C3663  C41     1.390   1_556 S
N3665  N18     1.360   1_556 S
N3665  Fe3799  2.091   .     S
N3666  Fe3797  2.139   .     S
H3667  C3670   0.750   .     S
H3667  C3671   0.750   .     S
C3668  C3670   1.360   .     S
C3668  N3674   1.360   .     D
C3669  C3670   1.360   .     S
C3669  N3675   1.360   .     D
C3670  C3671   1.500   .     S
C3671  C3673   1.390   .     S
C3671  C3717   1.390   .     S
C3672  C3673   1.390   .     D
C3672  C3716   1.390   .     S
N3674  N3675   1.360   .     S
N3674  Fe4028  2.091   .     S
N3675  Fe3722  2.139   .     S
H3676  C3679   0.750   .     S
H3676  C3680   0.750   .     S
C3677  C3679   1.360   .     S
C3677  N3683   1.360   .     D
C3678  C3679   1.360   .     S
C3678  N3684   1.360   .     D
C3679  C3680   1.500   .     S
C3680  C3682   1.390   .     S
C3680  C3708   1.390   .     S
C3681  C3682   1.390   .     D
C3681  C3707   1.390   .     S
N3683  N3684   1.360   .     S
N3683  Fe3723  2.091   .     S
N3684  Fe3721  2.139   .     S
H3685  C3688   0.750   .     S
H3685  C3689   0.750   .     S
C3686  C3688   1.360   .     S
C3686  N3692   1.360   .     D
C3687  C40     1.360   1_556 S
C3687  N3693   1.360   .     D
C3688  C3689   1.500   .     S
C3689  C3691   1.390   .     S
C3690  C3691   1.390   .     D
N3692  Fe4634  2.091   1_545 S
N3693  N44     1.360   1_556 S
N3693  Fe3724  2.139   .     S
H3694  C3697   0.750   .     S
H3694  C3698   0.750   .     S
C3695  C3697   1.360   .     S
C3695  N3701   1.360   .     D
C3696  C49     1.360   1_556 S
C3696  N3702   1.360   .     D
C3697  C3698   1.500   .     S
C3698  C3700   1.390   .     S
C3699  C3700   1.390   .     D
N3701  Fe3721  2.091   .     S
N3702  N53     1.360   1_556 S
N3702  Fe3723  2.139   .     S
H3703  C3706   0.750   .     S
H3703  C3707   0.750   .     S
C3704  C3706   1.360   .     S
C3704  N3710   1.360   .     D
C3705  C3706   1.360   .     S
C3705  N3711   1.360   .     D
C3706  C3707   1.500   .     S
C3707  C3709   1.390   .     S
C3708  C3709   1.390   .     D
N3710  N3711   1.360   .     S
N3710  Fe4634  2.091   1_545 S
N3711  Fe3724  2.139   .     S
H3712  C3715   0.750   .     S
H3712  C3716   0.750   .     S
C3713  C3715   1.360   .     S
C3713  N3719   1.360   .     D
C3714  C3715   1.360   .     S
C3714  N3720   1.360   .     D
C3715  C3716   1.500   .     S
C3716  C3718   1.390   .     S
C3717  C3718   1.390   .     D
N3719  N3720   1.360   .     S
N3719  Fe3797  2.091   .     S
N3720  Fe3799  2.139   .     S
Fe3721 N3947   2.091   1_455 S
Fe3721 N3894   2.139   1_455 S
Fe3722 N3996   2.091   .     S
Fe3722 N4014   2.091   .     S
Fe3723 N3893   2.091   1_455 S
Fe3723 N3948   2.139   1_455 S
Fe3724 N4568   2.091   1_545 S
Fe3724 N4586   2.091   1_545 S
H3725  C3728   0.750   .     S
H3725  C3729   0.750   .     S
C3726  C3728   1.360   .     S
C3726  N3732   1.360   .     D
C3727  N3733   1.360   .     D
C3728  C79     1.360   1_556 S
C3728  C3729   1.500   .     S
C3729  C3731   1.390   .     S
C3729  C127    1.390   1_556 S
C3730  C3731   1.390   .     D
C3730  C126    1.390   1_556 S
N3732  N85     1.360   1_556 S
N3732  Fe4104  2.091   .     S
N3733  Fe3798  2.139   .     S
H3734  C3737   0.750   .     S
H3734  C3738   0.750   .     S
C3735  C3737   1.360   .     S
C3735  N3741   1.360   .     D
C3736  N3742   1.360   .     D
C3737  C88     1.360   1_556 S
C3737  C3738   1.500   .     S
C3738  C3740   1.390   .     S
C3738  C118    1.390   1_556 S
C3739  C3740   1.390   .     D
C3739  C117    1.390   1_556 S
N3741  N94     1.360   1_556 S
N3741  Fe3875  2.091   .     S
N3742  Fe3873  2.139   .     S
H3743  C3746   0.750   .     S
H3743  C3747   0.750   .     S
C3744  C3746   1.360   .     S
C3744  N3750   1.360   .     D
C3745  C3746   1.360   .     S
C3745  N3751   1.360   .     D
C3746  C3747   1.500   .     S
C3747  C3749   1.390   .     S
C3747  C3793   1.390   .     S
C3748  C3749   1.390   .     D
C3748  C3792   1.390   .     S
N3750  N3751   1.360   .     S
N3750  Fe4104  2.091   .     S
N3751  Fe3798  2.139   .     S
H3752  C3755   0.750   .     S
H3752  C3756   0.750   .     S
C3753  C3755   1.360   .     S
C3753  N3759   1.360   .     D
C3754  C3755   1.360   .     S
C3754  N3760   1.360   .     D
C3755  C3756   1.500   .     S
C3756  C3758   1.390   .     S
C3756  C3784   1.390   .     S
C3757  C3758   1.390   .     D
C3757  C3783   1.390   .     S
N3759  N3760   1.360   .     S
N3759  Fe3799  2.091   .     S
N3760  Fe3797  2.139   .     S
H3761  C3764   0.750   .     S
H3761  C3765   0.750   .     S
C3762  C3764   1.360   .     S
C3762  N3768   1.360   .     D
C3763  C116    1.360   1_556 S
C3763  N3769   1.360   .     D
C3764  C3765   1.500   .     S
C3765  C3767   1.390   .     S
C3766  C3767   1.390   .     D
N3768  Fe4710  2.091   1_545 S
N3769  N120    1.360   1_556 S
N3769  Fe3800  2.139   .     S
H3770  C3773   0.750   .     S
H3770  C3774   0.750   .     S
C3771  C3773   1.360   .     S
C3771  N3777   1.360   .     D
C3772  C125    1.360   1_556 S
C3772  N3778   1.360   .     D
C3773  C3774   1.500   .     S
C3774  C3776   1.390   .     S
C3775  C3776   1.390   .     D
N3777  Fe3797  2.091   .     S
N3778  N129    1.360   1_556 S
N3778  Fe3799  2.139   .     S
H3779  C3782   0.750   .     S
H3779  C3783   0.750   .     S
C3780  C3782   1.360   .     S
C3780  N3786   1.360   .     D
C3781  C3782   1.360   .     S
C3781  N3787   1.360   .     D
C3782  C3783   1.500   .     S
C3783  C3785   1.390   .     S
C3784  C3785   1.390   .     D
N3786  N3787   1.360   .     S
N3786  Fe4710  2.091   1_545 S
N3787  Fe3800  2.139   .     S
H3788  C3791   0.750   .     S
H3788  C3792   0.750   .     S
C3789  C3791   1.360   .     S
C3789  N3795   1.360   .     D
C3790  C3791   1.360   .     S
C3790  N3796   1.360   .     D
C3791  C3792   1.500   .     S
C3792  C3794   1.390   .     S
C3793  C3794   1.390   .     D
N3795  N3796   1.360   .     S
N3795  Fe3873  2.091   .     S
N3796  Fe3875  2.139   .     S
Fe3798 N4072   2.091   .     S
Fe3798 N4090   2.091   .     S
Fe3800 N4644   2.091   1_545 S
Fe3800 N4662   2.091   1_545 S
H3801  C3804   0.750   .     S
H3801  C3805   0.750   .     S
C3802  C3804   1.360   .     S
C3802  N3808   1.360   .     D
C3803  N3809   1.360   .     D
C3804  C155    1.360   1_556 S
C3804  C3805   1.500   .     S
C3805  C3807   1.390   .     S
C3805  C203    1.390   1_556 S
C3806  C3807   1.390   .     D
C3806  C202    1.390   1_556 S
N3808  N161    1.360   1_556 S
N3808  Fe4180  2.091   .     S
N3809  Fe3874  2.139   .     S
H3810  C3813   0.750   .     S
H3810  C3814   0.750   .     S
C3811  C3813   1.360   .     S
C3811  N3817   1.360   .     D
C3812  N3818   1.360   .     D
C3813  C164    1.360   1_556 S
C3813  C3814   1.500   .     S
C3814  C3816   1.390   .     S
C3814  C194    1.390   1_556 S
C3815  C3816   1.390   .     D
C3815  C193    1.390   1_556 S
N3817  N170    1.360   1_556 S
N3817  Fe3951  2.091   .     S
N3818  Fe3949  2.139   .     S
H3819  C3822   0.750   .     S
H3819  C3823   0.750   .     S
C3820  C3822   1.360   .     S
C3820  N3826   1.360   .     D
C3821  C3822   1.360   .     S
C3821  N3827   1.360   .     D
C3822  C3823   1.500   .     S
C3823  C3825   1.390   .     S
C3823  C3869   1.390   .     S
C3824  C3825   1.390   .     D
C3824  C3868   1.390   .     S
N3826  N3827   1.360   .     S
N3826  Fe4180  2.091   .     S
N3827  Fe3874  2.139   .     S
H3828  C3831   0.750   .     S
H3828  C3832   0.750   .     S
C3829  C3831   1.360   .     S
C3829  N3835   1.360   .     D
C3830  C3831   1.360   .     S
C3830  N3836   1.360   .     D
C3831  C3832   1.500   .     S
C3832  C3834   1.390   .     S
C3832  C3860   1.390   .     S
C3833  C3834   1.390   .     D
C3833  C3859   1.390   .     S
N3835  N3836   1.360   .     S
N3835  Fe3875  2.091   .     S
N3836  Fe3873  2.139   .     S
H3837  C3840   0.750   .     S
H3837  C3841   0.750   .     S
C3838  C3840   1.360   .     S
C3838  N3844   1.360   .     D
C3839  C192    1.360   1_556 S
C3839  N3845   1.360   .     D
C3840  C3841   1.500   .     S
C3841  C3843   1.390   .     S
C3842  C3843   1.390   .     D
N3844  Fe4786  2.091   1_545 S
N3845  N196    1.360   1_556 S
N3845  Fe3876  2.139   .     S
H3846  C3849   0.750   .     S
H3846  C3850   0.750   .     S
C3847  C3849   1.360   .     S
C3847  N3853   1.360   .     D
C3848  C201    1.360   1_556 S
C3848  N3854   1.360   .     D
C3849  C3850   1.500   .     S
C3850  C3852   1.390   .     S
C3851  C3852   1.390   .     D
N3853  Fe3873  2.091   .     S
N3854  N205    1.360   1_556 S
N3854  Fe3875  2.139   .     S
H3855  C3858   0.750   .     S
H3855  C3859   0.750   .     S
C3856  C3858   1.360   .     S
C3856  N3862   1.360   .     D
C3857  C3858   1.360   .     S
C3857  N3863   1.360   .     D
C3858  C3859   1.500   .     S
C3859  C3861   1.390   .     S
C3860  C3861   1.390   .     D
N3862  N3863   1.360   .     S
N3862  Fe4786  2.091   1_545 S
N3863  Fe3876  2.139   .     S
H3864  C3867   0.750   .     S
H3864  C3868   0.750   .     S
C3865  C3867   1.360   .     S
C3865  N3871   1.360   .     D
C3866  C3867   1.360   .     S
C3866  N3872   1.360   .     D
C3867  C3868   1.500   .     S
C3868  C3870   1.390   .     S
C3869  C3870   1.390   .     D
N3871  N3872   1.360   .     S
N3871  Fe3949  2.091   .     S
N3872  Fe3951  2.139   .     S
Fe3874 N4148   2.091   .     S
Fe3874 N4166   2.091   .     S
Fe3876 N4720   2.091   1_545 S
Fe3876 N4738   2.091   1_545 S
H3877  C3880   0.750   .     S
H3877  C3881   0.750   .     S
C3878  C3880   1.360   .     S
C3878  N3884   1.360   .     D
C3879  N3885   1.360   .     D
C3880  C231    1.360   1_556 S
C3880  C3881   1.500   .     S
C3881  C3883   1.390   .     S
C3881  C279    1.390   1_556 S
C3882  C3883   1.390   .     D
C3882  C278    1.390   1_556 S
N3884  N237    1.360   1_556 S
N3884  Fe4256  2.091   .     S
N3885  Fe3950  2.139   .     S
H3886  C3889   0.750   .     S
H3886  C3890   0.750   .     S
C3887  C3889   1.360   .     S
C3887  N3893   1.360   .     D
C3888  N3894   1.360   .     D
C3889  C240    1.360   1_556 S
C3889  C3890   1.500   .     S
C3890  C3892   1.390   .     S
C3890  C270    1.390   1_556 S
C3891  C3892   1.390   .     D
C3891  C269    1.390   1_556 S
N3893  N246    1.360   1_556 S
N3893  Fe3723  2.091   1_655 S
N3894  Fe3721  2.139   1_655 S
H3895  C3898   0.750   .     S
H3895  C3899   0.750   .     S
C3896  C3898   1.360   .     S
C3896  N3902   1.360   .     D
C3897  C3898   1.360   .     S
C3897  N3903   1.360   .     D
C3898  C3899   1.500   .     S
C3899  C3901   1.390   .     S
C3899  C3945   1.390   .     S
C3900  C3901   1.390   .     D
C3900  C3944   1.390   .     S
N3902  N3903   1.360   .     S
N3902  Fe4256  2.091   .     S
N3903  Fe3950  2.139   .     S
H3904  C3907   0.750   .     S
H3904  C3908   0.750   .     S
C3905  C3907   1.360   .     S
C3905  N3911   1.360   .     D
C3906  C3907   1.360   .     S
C3906  N3912   1.360   .     D
C3907  C3908   1.500   .     S
C3908  C3910   1.390   .     S
C3908  C3936   1.390   .     S
C3909  C3910   1.390   .     D
C3909  C3935   1.390   .     S
N3911  N3912   1.360   .     S
N3911  Fe3951  2.091   .     S
N3912  Fe3949  2.139   .     S
H3913  C3916   0.750   .     S
H3913  C3917   0.750   .     S
C3914  C3916   1.360   .     S
C3914  N3920   1.360   .     D
C3915  C268    1.360   1_556 S
C3915  N3921   1.360   .     D
C3916  C3917   1.500   .     S
C3917  C3919   1.390   .     S
C3918  C3919   1.390   .     D
N3920  Fe4862  2.091   1_545 S
N3921  N272    1.360   1_556 S
N3921  Fe3952  2.139   .     S
H3922  C3925   0.750   .     S
H3922  C3926   0.750   .     S
C3923  C3925   1.360   .     S
C3923  N3929   1.360   .     D
C3924  C277    1.360   1_556 S
C3924  N3930   1.360   .     D
C3925  C3926   1.500   .     S
C3926  C3928   1.390   .     S
C3927  C3928   1.390   .     D
N3929  Fe3949  2.091   .     S
N3930  N281    1.360   1_556 S
N3930  Fe3951  2.139   .     S
H3931  C3934   0.750   .     S
H3931  C3935   0.750   .     S
C3932  C3934   1.360   .     S
C3932  N3938   1.360   .     D
C3933  C3934   1.360   .     S
C3933  N3939   1.360   .     D
C3934  C3935   1.500   .     S
C3935  C3937   1.390   .     S
C3936  C3937   1.390   .     D
N3938  N3939   1.360   .     S
N3938  Fe4862  2.091   1_545 S
N3939  Fe3952  2.139   .     S
H3940  C3943   0.750   .     S
H3940  C3944   0.750   .     S
C3941  C3943   1.360   .     S
C3941  N3947   1.360   .     D
C3942  C3943   1.360   .     S
C3942  N3948   1.360   .     D
C3943  C3944   1.500   .     S
C3944  C3946   1.390   .     S
C3945  C3946   1.390   .     D
N3947  N3948   1.360   .     S
N3947  Fe3721  2.091   1_655 S
N3948  Fe3723  2.139   1_655 S
Fe3950 N4224   2.091   .     S
Fe3950 N4242   2.091   .     S
Fe3952 N4796   2.091   1_545 S
Fe3952 N4814   2.091   1_545 S
H3953  C3956   0.750   .     S
H3953  C3957   0.750   .     S
C3954  C3956   1.360   .     S
C3954  N3960   1.360   .     D
C3955  N3961   1.360   .     D
C3956  C307    1.360   1_556 S
C3956  C3957   1.500   .     S
C3957  C3959   1.390   .     S
C3957  C355    1.390   1_556 S
C3958  C3959   1.390   .     D
C3958  C354    1.390   1_556 S
N3960  N313    1.360   1_556 S
N3960  Fe4332  2.091   .     S
N3961  Fe4026  2.139   .     S
H3962  C3965   0.750   .     S
H3962  C3966   0.750   .     S
C3963  C3965   1.360   .     S
C3963  N3969   1.360   .     D
C3964  N3970   1.360   .     D
C3965  C316    1.360   1_556 S
C3965  C3966   1.500   .     S
C3966  C3968   1.390   .     S
C3966  C346    1.390   1_556 S
C3967  C3968   1.390   .     D
C3967  C345    1.390   1_556 S
N3969  N322    1.360   1_556 S
N3969  Fe4103  2.091   .     S
N3970  Fe4101  2.139   .     S
H3971  C3974   0.750   .     S
H3971  C3975   0.750   .     S
C3972  C3974   1.360   .     S
C3972  N3978   1.360   .     D
C3973  C3974   1.360   .     S
C3973  N3979   1.360   .     D
C3974  C3975   1.500   .     S
C3975  C3977   1.390   .     S
C3975  C4021   1.390   .     S
C3976  C3977   1.390   .     D
C3976  C4020   1.390   .     S
N3978  N3979   1.360   .     S
N3978  Fe4332  2.091   .     S
N3979  Fe4026  2.139   .     S
H3980  C3983   0.750   .     S
H3980  C3984   0.750   .     S
C3981  C3983   1.360   .     S
C3981  N3987   1.360   .     D
C3982  C3983   1.360   .     S
C3982  N3988   1.360   .     D
C3983  C3984   1.500   .     S
C3984  C3986   1.390   .     S
C3984  C4012   1.390   .     S
C3985  C3986   1.390   .     D
C3985  C4011   1.390   .     S
N3987  N3988   1.360   .     S
N3987  Fe4027  2.091   .     S
N3988  Fe4025  2.139   .     S
H3989  C3992   0.750   .     S
H3989  C3993   0.750   .     S
C3990  C3992   1.360   .     S
C3990  N3996   1.360   .     D
C3991  C344    1.360   1_556 S
C3991  N3997   1.360   .     D
C3992  C3993   1.500   .     S
C3993  C3995   1.390   .     S
C3994  C3995   1.390   .     D
N3997  N348    1.360   1_556 S
N3997  Fe4028  2.139   .     S
H3998  C4001   0.750   .     S
H3998  C4002   0.750   .     S
C3999  C4001   1.360   .     S
C3999  N4005   1.360   .     D
C4000  C353    1.360   1_556 S
C4000  N4006   1.360   .     D
C4001  C4002   1.500   .     S
C4002  C4004   1.390   .     S
C4003  C4004   1.390   .     D
N4005  Fe4025  2.091   .     S
N4006  N357    1.360   1_556 S
N4006  Fe4027  2.139   .     S
H4007  C4010   0.750   .     S
H4007  C4011   0.750   .     S
C4008  C4010   1.360   .     S
C4008  N4014   1.360   .     D
C4009  C4010   1.360   .     S
C4009  N4015   1.360   .     D
C4010  C4011   1.500   .     S
C4011  C4013   1.390   .     S
C4012  C4013   1.390   .     D
N4014  N4015   1.360   .     S
N4015  Fe4028  2.139   .     S
H4016  C4019   0.750   .     S
H4016  C4020   0.750   .     S
C4017  C4019   1.360   .     S
C4017  N4023   1.360   .     D
C4018  C4019   1.360   .     S
C4018  N4024   1.360   .     D
C4019  C4020   1.500   .     S
C4020  C4022   1.390   .     S
C4021  C4022   1.390   .     D
N4023  N4024   1.360   .     S
N4023  Fe4101  2.091   .     S
N4024  Fe4103  2.139   .     S
Fe4025 N4251   2.091   1_455 S
Fe4025 N4198   2.139   1_455 S
Fe4026 N4300   2.091   .     S
Fe4026 N4318   2.091   .     S
Fe4027 N4197   2.091   1_455 S
Fe4027 N4252   2.139   1_455 S
H4029  C4032   0.750   .     S
H4029  C4033   0.750   .     S
C4030  C4032   1.360   .     S
C4030  N4036   1.360   .     D
C4031  N4037   1.360   .     D
C4032  C383    1.360   1_556 S
C4032  C4033   1.500   .     S
C4033  C4035   1.390   .     S
C4033  C431    1.390   1_556 S
C4034  C4035   1.390   .     D
C4034  C430    1.390   1_556 S
N4036  N389    1.360   1_556 S
N4036  Fe4408  2.091   .     S
N4037  Fe4102  2.139   .     S
H4038  C4041   0.750   .     S
H4038  C4042   0.750   .     S
C4039  C4041   1.360   .     S
C4039  N4045   1.360   .     D
C4040  N4046   1.360   .     D
C4041  C392    1.360   1_556 S
C4041  C4042   1.500   .     S
C4042  C4044   1.390   .     S
C4042  C422    1.390   1_556 S
C4043  C4044   1.390   .     D
C4043  C421    1.390   1_556 S
N4045  N398    1.360   1_556 S
N4045  Fe4179  2.091   .     S
N4046  Fe4177  2.139   .     S
H4047  C4050   0.750   .     S
H4047  C4051   0.750   .     S
C4048  C4050   1.360   .     S
C4048  N4054   1.360   .     D
C4049  C4050   1.360   .     S
C4049  N4055   1.360   .     D
C4050  C4051   1.500   .     S
C4051  C4053   1.390   .     S
C4051  C4097   1.390   .     S
C4052  C4053   1.390   .     D
C4052  C4096   1.390   .     S
N4054  N4055   1.360   .     S
N4054  Fe4408  2.091   .     S
N4055  Fe4102  2.139   .     S
H4056  C4059   0.750   .     S
H4056  C4060   0.750   .     S
C4057  C4059   1.360   .     S
C4057  N4063   1.360   .     D
C4058  C4059   1.360   .     S
C4058  N4064   1.360   .     D
C4059  C4060   1.500   .     S
C4060  C4062   1.390   .     S
C4060  C4088   1.390   .     S
C4061  C4062   1.390   .     D
C4061  C4087   1.390   .     S
N4063  N4064   1.360   .     S
N4063  Fe4103  2.091   .     S
N4064  Fe4101  2.139   .     S
H4065  C4068   0.750   .     S
H4065  C4069   0.750   .     S
C4066  C4068   1.360   .     S
C4066  N4072   1.360   .     D
C4067  C420    1.360   1_556 S
C4067  N4073   1.360   .     D
C4068  C4069   1.500   .     S
C4069  C4071   1.390   .     S
C4070  C4071   1.390   .     D
N4073  N424    1.360   1_556 S
N4073  Fe4104  2.139   .     S
H4074  C4077   0.750   .     S
H4074  C4078   0.750   .     S
C4075  C4077   1.360   .     S
C4075  N4081   1.360   .     D
C4076  C429    1.360   1_556 S
C4076  N4082   1.360   .     D
C4077  C4078   1.500   .     S
C4078  C4080   1.390   .     S
C4079  C4080   1.390   .     D
N4081  Fe4101  2.091   .     S
N4082  N433    1.360   1_556 S
N4082  Fe4103  2.139   .     S
H4083  C4086   0.750   .     S
H4083  C4087   0.750   .     S
C4084  C4086   1.360   .     S
C4084  N4090   1.360   .     D
C4085  C4086   1.360   .     S
C4085  N4091   1.360   .     D
C4086  C4087   1.500   .     S
C4087  C4089   1.390   .     S
C4088  C4089   1.390   .     D
N4090  N4091   1.360   .     S
N4091  Fe4104  2.139   .     S
H4092  C4095   0.750   .     S
H4092  C4096   0.750   .     S
C4093  C4095   1.360   .     S
C4093  N4099   1.360   .     D
C4094  C4095   1.360   .     S
C4094  N4100   1.360   .     D
C4095  C4096   1.500   .     S
C4096  C4098   1.390   .     S
C4097  C4098   1.390   .     D
N4099  N4100   1.360   .     S
N4099  Fe4177  2.091   .     S
N4100  Fe4179  2.139   .     S
Fe4102 N4376   2.091   .     S
Fe4102 N4394   2.091   .     S
H4105  C4108   0.750   .     S
H4105  C4109   0.750   .     S
C4106  C4108   1.360   .     S
C4106  N4112   1.360   .     D
C4107  N4113   1.360   .     D
C4108  C459    1.360   1_556 S
C4108  C4109   1.500   .     S
C4109  C4111   1.390   .     S
C4109  C507    1.390   1_556 S
C4110  C4111   1.390   .     D
C4110  C506    1.390   1_556 S
N4112  N465    1.360   1_556 S
N4112  Fe4484  2.091   .     S
N4113  Fe4178  2.139   .     S
H4114  C4117   0.750   .     S
H4114  C4118   0.750   .     S
C4115  C4117   1.360   .     S
C4115  N4121   1.360   .     D
C4116  N4122   1.360   .     D
C4117  C468    1.360   1_556 S
C4117  C4118   1.500   .     S
C4118  C4120   1.390   .     S
C4118  C498    1.390   1_556 S
C4119  C4120   1.390   .     D
C4119  C497    1.390   1_556 S
N4121  N474    1.360   1_556 S
N4121  Fe4255  2.091   .     S
N4122  Fe4253  2.139   .     S
H4123  C4126   0.750   .     S
H4123  C4127   0.750   .     S
C4124  C4126   1.360   .     S
C4124  N4130   1.360   .     D
C4125  C4126   1.360   .     S
C4125  N4131   1.360   .     D
C4126  C4127   1.500   .     S
C4127  C4129   1.390   .     S
C4127  C4173   1.390   .     S
C4128  C4129   1.390   .     D
C4128  C4172   1.390   .     S
N4130  N4131   1.360   .     S
N4130  Fe4484  2.091   .     S
N4131  Fe4178  2.139   .     S
H4132  C4135   0.750   .     S
H4132  C4136   0.750   .     S
C4133  C4135   1.360   .     S
C4133  N4139   1.360   .     D
C4134  C4135   1.360   .     S
C4134  N4140   1.360   .     D
C4135  C4136   1.500   .     S
C4136  C4138   1.390   .     S
C4136  C4164   1.390   .     S
C4137  C4138   1.390   .     D
C4137  C4163   1.390   .     S
N4139  N4140   1.360   .     S
N4139  Fe4179  2.091   .     S
N4140  Fe4177  2.139   .     S
H4141  C4144   0.750   .     S
H4141  C4145   0.750   .     S
C4142  C4144   1.360   .     S
C4142  N4148   1.360   .     D
C4143  C496    1.360   1_556 S
C4143  N4149   1.360   .     D
C4144  C4145   1.500   .     S
C4145  C4147   1.390   .     S
C4146  C4147   1.390   .     D
N4149  N500    1.360   1_556 S
N4149  Fe4180  2.139   .     S
H4150  C4153   0.750   .     S
H4150  C4154   0.750   .     S
C4151  C4153   1.360   .     S
C4151  N4157   1.360   .     D
C4152  C505    1.360   1_556 S
C4152  N4158   1.360   .     D
C4153  C4154   1.500   .     S
C4154  C4156   1.390   .     S
C4155  C4156   1.390   .     D
N4157  Fe4177  2.091   .     S
N4158  N509    1.360   1_556 S
N4158  Fe4179  2.139   .     S
H4159  C4162   0.750   .     S
H4159  C4163   0.750   .     S
C4160  C4162   1.360   .     S
C4160  N4166   1.360   .     D
C4161  C4162   1.360   .     S
C4161  N4167   1.360   .     D
C4162  C4163   1.500   .     S
C4163  C4165   1.390   .     S
C4164  C4165   1.390   .     D
N4166  N4167   1.360   .     S
N4167  Fe4180  2.139   .     S
H4168  C4171   0.750   .     S
H4168  C4172   0.750   .     S
C4169  C4171   1.360   .     S
C4169  N4175   1.360   .     D
C4170  C4171   1.360   .     S
C4170  N4176   1.360   .     D
C4171  C4172   1.500   .     S
C4172  C4174   1.390   .     S
C4173  C4174   1.390   .     D
N4175  N4176   1.360   .     S
N4175  Fe4253  2.091   .     S
N4176  Fe4255  2.139   .     S
Fe4178 N4452   2.091   .     S
Fe4178 N4470   2.091   .     S
H4181  C4184   0.750   .     S
H4181  C4185   0.750   .     S
C4182  C4184   1.360   .     S
C4182  N4188   1.360   .     D
C4183  N4189   1.360   .     D
C4184  C535    1.360   1_556 S
C4184  C4185   1.500   .     S
C4185  C4187   1.390   .     S
C4185  C583    1.390   1_556 S
C4186  C4187   1.390   .     D
C4186  C582    1.390   1_556 S
N4188  N541    1.360   1_556 S
N4188  Fe4560  2.091   .     S
N4189  Fe4254  2.139   .     S
H4190  C4193   0.750   .     S
H4190  C4194   0.750   .     S
C4191  C4193   1.360   .     S
C4191  N4197   1.360   .     D
C4192  N4198   1.360   .     D
C4193  C544    1.360   1_556 S
C4193  C4194   1.500   .     S
C4194  C4196   1.390   .     S
C4194  C574    1.390   1_556 S
C4195  C4196   1.390   .     D
C4195  C573    1.390   1_556 S
N4197  N550    1.360   1_556 S
N4197  Fe4027  2.091   1_655 S
N4198  Fe4025  2.139   1_655 S
H4199  C4202   0.750   .     S
H4199  C4203   0.750   .     S
C4200  C4202   1.360   .     S
C4200  N4206   1.360   .     D
C4201  C4202   1.360   .     S
C4201  N4207   1.360   .     D
C4202  C4203   1.500   .     S
C4203  C4205   1.390   .     S
C4203  C4249   1.390   .     S
C4204  C4205   1.390   .     D
C4204  C4248   1.390   .     S
N4206  N4207   1.360   .     S
N4206  Fe4560  2.091   .     S
N4207  Fe4254  2.139   .     S
H4208  C4211   0.750   .     S
H4208  C4212   0.750   .     S
C4209  C4211   1.360   .     S
C4209  N4215   1.360   .     D
C4210  C4211   1.360   .     S
C4210  N4216   1.360   .     D
C4211  C4212   1.500   .     S
C4212  C4214   1.390   .     S
C4212  C4240   1.390   .     S
C4213  C4214   1.390   .     D
C4213  C4239   1.390   .     S
N4215  N4216   1.360   .     S
N4215  Fe4255  2.091   .     S
N4216  Fe4253  2.139   .     S
H4217  C4220   0.750   .     S
H4217  C4221   0.750   .     S
C4218  C4220   1.360   .     S
C4218  N4224   1.360   .     D
C4219  C572    1.360   1_556 S
C4219  N4225   1.360   .     D
C4220  C4221   1.500   .     S
C4221  C4223   1.390   .     S
C4222  C4223   1.390   .     D
N4225  N576    1.360   1_556 S
N4225  Fe4256  2.139   .     S
H4226  C4229   0.750   .     S
H4226  C4230   0.750   .     S
C4227  C4229   1.360   .     S
C4227  N4233   1.360   .     D
C4228  C581    1.360   1_556 S
C4228  N4234   1.360   .     D
C4229  C4230   1.500   .     S
C4230  C4232   1.390   .     S
C4231  C4232   1.390   .     D
N4233  Fe4253  2.091   .     S
N4234  N585    1.360   1_556 S
N4234  Fe4255  2.139   .     S
H4235  C4238   0.750   .     S
H4235  C4239   0.750   .     S
C4236  C4238   1.360   .     S
C4236  N4242   1.360   .     D
C4237  C4238   1.360   .     S
C4237  N4243   1.360   .     D
C4238  C4239   1.500   .     S
C4239  C4241   1.390   .     S
C4240  C4241   1.390   .     D
N4242  N4243   1.360   .     S
N4243  Fe4256  2.139   .     S
H4244  C4247   0.750   .     S
H4244  C4248   0.750   .     S
C4245  C4247   1.360   .     S
C4245  N4251   1.360   .     D
C4246  C4247   1.360   .     S
C4246  N4252   1.360   .     D
C4247  C4248   1.500   .     S
C4248  C4250   1.390   .     S
C4249  C4250   1.390   .     D
N4251  N4252   1.360   .     S
N4251  Fe4025  2.091   1_655 S
N4252  Fe4027  2.139   1_655 S
Fe4254 N4528   2.091   .     S
Fe4254 N4546   2.091   .     S
H4257  C4260   0.750   .     S
H4257  C4261   0.750   .     S
C4258  C4260   1.360   .     S
C4258  N4264   1.360   .     D
C4259  N4265   1.360   .     D
C4260  C611    1.360   1_556 S
C4260  C4261   1.500   .     S
C4261  C4263   1.390   .     S
C4261  C659    1.390   1_556 S
C4262  C4263   1.390   .     D
C4262  C658    1.390   1_556 S
N4264  N617    1.360   1_556 S
N4264  Fe4636  2.091   .     S
N4265  Fe4330  2.139   .     S
H4266  C4269   0.750   .     S
H4266  C4270   0.750   .     S
C4267  C4269   1.360   .     S
C4267  N4273   1.360   .     D
C4268  N4274   1.360   .     D
C4269  C620    1.360   1_556 S
C4269  C4270   1.500   .     S
C4270  C4272   1.390   .     S
C4270  C650    1.390   1_556 S
C4271  C4272   1.390   .     D
C4271  C649    1.390   1_556 S
N4273  N626    1.360   1_556 S
N4273  Fe4407  2.091   .     S
N4274  Fe4405  2.139   .     S
H4275  C4278   0.750   .     S
H4275  C4279   0.750   .     S
C4276  C4278   1.360   .     S
C4276  N4282   1.360   .     D
C4277  C4278   1.360   .     S
C4277  N4283   1.360   .     D
C4278  C4279   1.500   .     S
C4279  C4281   1.390   .     S
C4279  C4325   1.390   .     S
C4280  C4281   1.390   .     D
C4280  C4324   1.390   .     S
N4282  N4283   1.360   .     S
N4282  Fe4636  2.091   .     S
N4283  Fe4330  2.139   .     S
H4284  C4287   0.750   .     S
H4284  C4288   0.750   .     S
C4285  C4287   1.360   .     S
C4285  N4291   1.360   .     D
C4286  C4287   1.360   .     S
C4286  N4292   1.360   .     D
C4287  C4288   1.500   .     S
C4288  C4290   1.390   .     S
C4288  C4316   1.390   .     S
C4289  C4290   1.390   .     D
C4289  C4315   1.390   .     S
N4291  N4292   1.360   .     S
N4291  Fe4331  2.091   .     S
N4292  Fe4329  2.139   .     S
H4293  C4296   0.750   .     S
H4293  C4297   0.750   .     S
C4294  C4296   1.360   .     S
C4294  N4300   1.360   .     D
C4295  C648    1.360   1_556 S
C4295  N4301   1.360   .     D
C4296  C4297   1.500   .     S
C4297  C4299   1.390   .     S
C4298  C4299   1.390   .     D
N4301  N652    1.360   1_556 S
N4301  Fe4332  2.139   .     S
H4302  C4305   0.750   .     S
H4302  C4306   0.750   .     S
C4303  C4305   1.360   .     S
C4303  N4309   1.360   .     D
C4304  C657    1.360   1_556 S
C4304  N4310   1.360   .     D
C4305  C4306   1.500   .     S
C4306  C4308   1.390   .     S
C4307  C4308   1.390   .     D
N4309  Fe4329  2.091   .     S
N4310  N661    1.360   1_556 S
N4310  Fe4331  2.139   .     S
H4311  C4314   0.750   .     S
H4311  C4315   0.750   .     S
C4312  C4314   1.360   .     S
C4312  N4318   1.360   .     D
C4313  C4314   1.360   .     S
C4313  N4319   1.360   .     D
C4314  C4315   1.500   .     S
C4315  C4317   1.390   .     S
C4316  C4317   1.390   .     D
N4318  N4319   1.360   .     S
N4319  Fe4332  2.139   .     S
H4320  C4323   0.750   .     S
H4320  C4324   0.750   .     S
C4321  C4323   1.360   .     S
C4321  N4327   1.360   .     D
C4322  C4323   1.360   .     S
C4322  N4328   1.360   .     D
C4323  C4324   1.500   .     S
C4324  C4326   1.390   .     S
C4325  C4326   1.390   .     D
N4327  N4328   1.360   .     S
N4327  Fe4405  2.091   .     S
N4328  Fe4407  2.139   .     S
Fe4329 N4555   2.091   1_455 S
Fe4329 N4502   2.139   1_455 S
Fe4330 N4604   2.091   .     S
Fe4330 N4622   2.091   .     S
Fe4331 N4501   2.091   1_455 S
Fe4331 N4556   2.139   1_455 S
H4333  C4336   0.750   .     S
H4333  C4337   0.750   .     S
C4334  C4336   1.360   .     S
C4334  N4340   1.360   .     D
C4335  N4341   1.360   .     D
C4336  C687    1.360   1_556 S
C4336  C4337   1.500   .     S
C4337  C4339   1.390   .     S
C4337  C735    1.390   1_556 S
C4338  C4339   1.390   .     D
C4338  C734    1.390   1_556 S
N4340  N693    1.360   1_556 S
N4340  Fe4712  2.091   .     S
N4341  Fe4406  2.139   .     S
H4342  C4345   0.750   .     S
H4342  C4346   0.750   .     S
C4343  C4345   1.360   .     S
C4343  N4349   1.360   .     D
C4344  N4350   1.360   .     D
C4345  C696    1.360   1_556 S
C4345  C4346   1.500   .     S
C4346  C4348   1.390   .     S
C4346  C726    1.390   1_556 S
C4347  C4348   1.390   .     D
C4347  C725    1.390   1_556 S
N4349  N702    1.360   1_556 S
N4349  Fe4483  2.091   .     S
N4350  Fe4481  2.139   .     S
H4351  C4354   0.750   .     S
H4351  C4355   0.750   .     S
C4352  C4354   1.360   .     S
C4352  N4358   1.360   .     D
C4353  C4354   1.360   .     S
C4353  N4359   1.360   .     D
C4354  C4355   1.500   .     S
C4355  C4357   1.390   .     S
C4355  C4401   1.390   .     S
C4356  C4357   1.390   .     D
C4356  C4400   1.390   .     S
N4358  N4359   1.360   .     S
N4358  Fe4712  2.091   .     S
N4359  Fe4406  2.139   .     S
H4360  C4363   0.750   .     S
H4360  C4364   0.750   .     S
C4361  C4363   1.360   .     S
C4361  N4367   1.360   .     D
C4362  C4363   1.360   .     S
C4362  N4368   1.360   .     D
C4363  C4364   1.500   .     S
C4364  C4366   1.390   .     S
C4364  C4392   1.390   .     S
C4365  C4366   1.390   .     D
C4365  C4391   1.390   .     S
N4367  N4368   1.360   .     S
N4367  Fe4407  2.091   .     S
N4368  Fe4405  2.139   .     S
H4369  C4372   0.750   .     S
H4369  C4373   0.750   .     S
C4370  C4372   1.360   .     S
C4370  N4376   1.360   .     D
C4371  C724    1.360   1_556 S
C4371  N4377   1.360   .     D
C4372  C4373   1.500   .     S
C4373  C4375   1.390   .     S
C4374  C4375   1.390   .     D
N4377  N728    1.360   1_556 S
N4377  Fe4408  2.139   .     S
H4378  C4381   0.750   .     S
H4378  C4382   0.750   .     S
C4379  C4381   1.360   .     S
C4379  N4385   1.360   .     D
C4380  C733    1.360   1_556 S
C4380  N4386   1.360   .     D
C4381  C4382   1.500   .     S
C4382  C4384   1.390   .     S
C4383  C4384   1.390   .     D
N4385  Fe4405  2.091   .     S
N4386  N737    1.360   1_556 S
N4386  Fe4407  2.139   .     S
H4387  C4390   0.750   .     S
H4387  C4391   0.750   .     S
C4388  C4390   1.360   .     S
C4388  N4394   1.360   .     D
C4389  C4390   1.360   .     S
C4389  N4395   1.360   .     D
C4390  C4391   1.500   .     S
C4391  C4393   1.390   .     S
C4392  C4393   1.390   .     D
N4394  N4395   1.360   .     S
N4395  Fe4408  2.139   .     S
H4396  C4399   0.750   .     S
H4396  C4400   0.750   .     S
C4397  C4399   1.360   .     S
C4397  N4403   1.360   .     D
C4398  C4399   1.360   .     S
C4398  N4404   1.360   .     D
C4399  C4400   1.500   .     S
C4400  C4402   1.390   .     S
C4401  C4402   1.390   .     D
N4403  N4404   1.360   .     S
N4403  Fe4481  2.091   .     S
N4404  Fe4483  2.139   .     S
Fe4406 N4680   2.091   .     S
Fe4406 N4698   2.091   .     S
H4409  C4412   0.750   .     S
H4409  C4413   0.750   .     S
C4410  C4412   1.360   .     S
C4410  N4416   1.360   .     D
C4411  N4417   1.360   .     D
C4412  C763    1.360   1_556 S
C4412  C4413   1.500   .     S
C4413  C4415   1.390   .     S
C4413  C811    1.390   1_556 S
C4414  C4415   1.390   .     D
C4414  C810    1.390   1_556 S
N4416  N769    1.360   1_556 S
N4416  Fe4788  2.091   .     S
N4417  Fe4482  2.139   .     S
H4418  C4421   0.750   .     S
H4418  C4422   0.750   .     S
C4419  C4421   1.360   .     S
C4419  N4425   1.360   .     D
C4420  N4426   1.360   .     D
C4421  C772    1.360   1_556 S
C4421  C4422   1.500   .     S
C4422  C4424   1.390   .     S
C4422  C802    1.390   1_556 S
C4423  C4424   1.390   .     D
C4423  C801    1.390   1_556 S
N4425  N778    1.360   1_556 S
N4425  Fe4559  2.091   .     S
N4426  Fe4557  2.139   .     S
H4427  C4430   0.750   .     S
H4427  C4431   0.750   .     S
C4428  C4430   1.360   .     S
C4428  N4434   1.360   .     D
C4429  C4430   1.360   .     S
C4429  N4435   1.360   .     D
C4430  C4431   1.500   .     S
C4431  C4433   1.390   .     S
C4431  C4477   1.390   .     S
C4432  C4433   1.390   .     D
C4432  C4476   1.390   .     S
N4434  N4435   1.360   .     S
N4434  Fe4788  2.091   .     S
N4435  Fe4482  2.139   .     S
H4436  C4439   0.750   .     S
H4436  C4440   0.750   .     S
C4437  C4439   1.360   .     S
C4437  N4443   1.360   .     D
C4438  C4439   1.360   .     S
C4438  N4444   1.360   .     D
C4439  C4440   1.500   .     S
C4440  C4442   1.390   .     S
C4440  C4468   1.390   .     S
C4441  C4442   1.390   .     D
C4441  C4467   1.390   .     S
N4443  N4444   1.360   .     S
N4443  Fe4483  2.091   .     S
N4444  Fe4481  2.139   .     S
H4445  C4448   0.750   .     S
H4445  C4449   0.750   .     S
C4446  C4448   1.360   .     S
C4446  N4452   1.360   .     D
C4447  C800    1.360   1_556 S
C4447  N4453   1.360   .     D
C4448  C4449   1.500   .     S
C4449  C4451   1.390   .     S
C4450  C4451   1.390   .     D
N4453  N804    1.360   1_556 S
N4453  Fe4484  2.139   .     S
H4454  C4457   0.750   .     S
H4454  C4458   0.750   .     S
C4455  C4457   1.360   .     S
C4455  N4461   1.360   .     D
C4456  C809    1.360   1_556 S
C4456  N4462   1.360   .     D
C4457  C4458   1.500   .     S
C4458  C4460   1.390   .     S
C4459  C4460   1.390   .     D
N4461  Fe4481  2.091   .     S
N4462  N813    1.360   1_556 S
N4462  Fe4483  2.139   .     S
H4463  C4466   0.750   .     S
H4463  C4467   0.750   .     S
C4464  C4466   1.360   .     S
C4464  N4470   1.360   .     D
C4465  C4466   1.360   .     S
C4465  N4471   1.360   .     D
C4466  C4467   1.500   .     S
C4467  C4469   1.390   .     S
C4468  C4469   1.390   .     D
N4470  N4471   1.360   .     S
N4471  Fe4484  2.139   .     S
H4472  C4475   0.750   .     S
H4472  C4476   0.750   .     S
C4473  C4475   1.360   .     S
C4473  N4479   1.360   .     D
C4474  C4475   1.360   .     S
C4474  N4480   1.360   .     D
C4475  C4476   1.500   .     S
C4476  C4478   1.390   .     S
C4477  C4478   1.390   .     D
N4479  N4480   1.360   .     S
N4479  Fe4557  2.091   .     S
N4480  Fe4559  2.139   .     S
Fe4482 N4756   2.091   .     S
Fe4482 N4774   2.091   .     S
H4485  C4488   0.750   .     S
H4485  C4489   0.750   .     S
C4486  C4488   1.360   .     S
C4486  N4492   1.360   .     D
C4487  N4493   1.360   .     D
C4488  C839    1.360   1_556 S
C4488  C4489   1.500   .     S
C4489  C4491   1.390   .     S
C4489  C887    1.390   1_556 S
C4490  C4491   1.390   .     D
C4490  C886    1.390   1_556 S
N4492  N845    1.360   1_556 S
N4492  Fe4864  2.091   .     S
N4493  Fe4558  2.139   .     S
H4494  C4497   0.750   .     S
H4494  C4498   0.750   .     S
C4495  C4497   1.360   .     S
C4495  N4501   1.360   .     D
C4496  N4502   1.360   .     D
C4497  C848    1.360   1_556 S
C4497  C4498   1.500   .     S
C4498  C4500   1.390   .     S
C4498  C878    1.390   1_556 S
C4499  C4500   1.390   .     D
C4499  C877    1.390   1_556 S
N4501  N854    1.360   1_556 S
N4501  Fe4331  2.091   1_655 S
N4502  Fe4329  2.139   1_655 S
H4503  C4506   0.750   .     S
H4503  C4507   0.750   .     S
C4504  C4506   1.360   .     S
C4504  N4510   1.360   .     D
C4505  C4506   1.360   .     S
C4505  N4511   1.360   .     D
C4506  C4507   1.500   .     S
C4507  C4509   1.390   .     S
C4507  C4553   1.390   .     S
C4508  C4509   1.390   .     D
C4508  C4552   1.390   .     S
N4510  N4511   1.360   .     S
N4510  Fe4864  2.091   .     S
N4511  Fe4558  2.139   .     S
H4512  C4515   0.750   .     S
H4512  C4516   0.750   .     S
C4513  C4515   1.360   .     S
C4513  N4519   1.360   .     D
C4514  C4515   1.360   .     S
C4514  N4520   1.360   .     D
C4515  C4516   1.500   .     S
C4516  C4518   1.390   .     S
C4516  C4544   1.390   .     S
C4517  C4518   1.390   .     D
C4517  C4543   1.390   .     S
N4519  N4520   1.360   .     S
N4519  Fe4559  2.091   .     S
N4520  Fe4557  2.139   .     S
H4521  C4524   0.750   .     S
H4521  C4525   0.750   .     S
C4522  C4524   1.360   .     S
C4522  N4528   1.360   .     D
C4523  C876    1.360   1_556 S
C4523  N4529   1.360   .     D
C4524  C4525   1.500   .     S
C4525  C4527   1.390   .     S
C4526  C4527   1.390   .     D
N4529  N880    1.360   1_556 S
N4529  Fe4560  2.139   .     S
H4530  C4533   0.750   .     S
H4530  C4534   0.750   .     S
C4531  C4533   1.360   .     S
C4531  N4537   1.360   .     D
C4532  C885    1.360   1_556 S
C4532  N4538   1.360   .     D
C4533  C4534   1.500   .     S
C4534  C4536   1.390   .     S
C4535  C4536   1.390   .     D
N4537  Fe4557  2.091   .     S
N4538  N889    1.360   1_556 S
N4538  Fe4559  2.139   .     S
H4539  C4542   0.750   .     S
H4539  C4543   0.750   .     S
C4540  C4542   1.360   .     S
C4540  N4546   1.360   .     D
C4541  C4542   1.360   .     S
C4541  N4547   1.360   .     D
C4542  C4543   1.500   .     S
C4543  C4545   1.390   .     S
C4544  C4545   1.390   .     D
N4546  N4547   1.360   .     S
N4547  Fe4560  2.139   .     S
H4548  C4551   0.750   .     S
H4548  C4552   0.750   .     S
C4549  C4551   1.360   .     S
C4549  N4555   1.360   .     D
C4550  C4551   1.360   .     S
C4550  N4556   1.360   .     D
C4551  C4552   1.500   .     S
C4552  C4554   1.390   .     S
C4553  C4554   1.390   .     D
N4555  N4556   1.360   .     S
N4555  Fe4329  2.091   1_655 S
N4556  Fe4331  2.139   1_655 S
Fe4558 N4832   2.091   .     S
Fe4558 N4850   2.091   .     S
H4561  C4564   0.750   .     S
H4561  C4565   0.750   .     S
C4562  C4564   1.360   .     S
C4562  N4568   1.360   .     D
C4563  N4569   1.360   .     D
C4564  C915    1.360   1_556 S
C4564  C4565   1.500   .     S
C4565  C4567   1.390   .     S
C4565  C963    1.390   1_556 S
C4566  C4567   1.390   .     D
C4566  C962    1.390   1_556 S
N4568  N921    1.360   1_556 S
N4568  Fe3724  2.091   1_565 S
N4569  Fe4634  2.139   .     S
H4570  C4573   0.750   .     S
H4570  C4574   0.750   .     S
C4571  C4573   1.360   .     S
C4571  N4577   1.360   .     D
C4572  N4578   1.360   .     D
C4573  C924    1.360   1_556 S
C4573  C4574   1.500   .     S
C4574  C4576   1.390   .     S
C4574  C954    1.390   1_556 S
C4575  C4576   1.390   .     D
C4575  C953    1.390   1_556 S
N4577  N930    1.360   1_556 S
N4577  Fe4711  2.091   .     S
N4578  Fe4709  2.139   .     S
H4579  C4582   0.750   .     S
H4579  C4583   0.750   .     S
C4580  C4582   1.360   .     S
C4580  N4586   1.360   .     D
C4581  C4582   1.360   .     S
C4581  N4587   1.360   .     D
C4582  C4583   1.500   .     S
C4583  C4585   1.390   .     S
C4583  C4629   1.390   .     S
C4584  C4585   1.390   .     D
C4584  C4628   1.390   .     S
N4586  N4587   1.360   .     S
N4586  Fe3724  2.091   1_565 S
N4587  Fe4634  2.139   .     S
H4588  C4591   0.750   .     S
H4588  C4592   0.750   .     S
C4589  C4591   1.360   .     S
C4589  N4595   1.360   .     D
C4590  C4591   1.360   .     S
C4590  N4596   1.360   .     D
C4591  C4592   1.500   .     S
C4592  C4594   1.390   .     S
C4592  C4620   1.390   .     S
C4593  C4594   1.390   .     D
C4593  C4619   1.390   .     S
N4595  N4596   1.360   .     S
N4595  Fe4635  2.091   .     S
N4596  Fe4633  2.139   .     S
H4597  C4600   0.750   .     S
H4597  C4601   0.750   .     S
C4598  C4600   1.360   .     S
C4598  N4604   1.360   .     D
C4599  C952    1.360   1_556 S
C4599  N4605   1.360   .     D
C4600  C4601   1.500   .     S
C4601  C4603   1.390   .     S
C4602  C4603   1.390   .     D
N4605  N956    1.360   1_556 S
N4605  Fe4636  2.139   .     S
H4606  C4609   0.750   .     S
H4606  C4610   0.750   .     S
C4607  C4609   1.360   .     S
C4607  N4613   1.360   .     D
C4608  C961    1.360   1_556 S
C4608  N4614   1.360   .     D
C4609  C4610   1.500   .     S
C4610  C4612   1.390   .     S
C4611  C4612   1.390   .     D
N4613  Fe4633  2.091   .     S
N4614  N965    1.360   1_556 S
N4614  Fe4635  2.139   .     S
H4615  C4618   0.750   .     S
H4615  C4619   0.750   .     S
C4616  C4618   1.360   .     S
C4616  N4622   1.360   .     D
C4617  C4618   1.360   .     S
C4617  N4623   1.360   .     D
C4618  C4619   1.500   .     S
C4619  C4621   1.390   .     S
C4620  C4621   1.390   .     D
N4622  N4623   1.360   .     S
N4623  Fe4636  2.139   .     S
H4624  C4627   0.750   .     S
H4624  C4628   0.750   .     S
C4625  C4627   1.360   .     S
C4625  N4631   1.360   .     D
C4626  C4627   1.360   .     S
C4626  N4632   1.360   .     D
C4627  C4628   1.500   .     S
C4628  C4630   1.390   .     S
C4629  C4630   1.390   .     D
N4631  N4632   1.360   .     S
N4631  Fe4709  2.091   .     S
N4632  Fe4711  2.139   .     S
Fe4633 N4859   2.091   1_455 S
Fe4633 N4806   2.139   1_455 S
Fe4634 N3692   2.091   1_565 S
Fe4634 N3710   2.091   1_565 S
Fe4635 N4805   2.091   1_455 S
Fe4635 N4860   2.139   1_455 S
H4637  C4640   0.750   .     S
H4637  C4641   0.750   .     S
C4638  C4640   1.360   .     S
C4638  N4644   1.360   .     D
C4639  N4645   1.360   .     D
C4640  C991    1.360   1_556 S
C4640  C4641   1.500   .     S
C4641  C4643   1.390   .     S
C4641  C1039   1.390   1_556 S
C4642  C4643   1.390   .     D
C4642  C1038   1.390   1_556 S
N4644  N997    1.360   1_556 S
N4644  Fe3800  2.091   1_565 S
N4645  Fe4710  2.139   .     S
H4646  C4649   0.750   .     S
H4646  C4650   0.750   .     S
C4647  C4649   1.360   .     S
C4647  N4653   1.360   .     D
C4648  N4654   1.360   .     D
C4649  C1000   1.360   1_556 S
C4649  C4650   1.500   .     S
C4650  C4652   1.390   .     S
C4650  C1030   1.390   1_556 S
C4651  C4652   1.390   .     D
C4651  C1029   1.390   1_556 S
N4653  N1006   1.360   1_556 S
N4653  Fe4787  2.091   .     S
N4654  Fe4785  2.139   .     S
H4655  C4658   0.750   .     S
H4655  C4659   0.750   .     S
C4656  C4658   1.360   .     S
C4656  N4662   1.360   .     D
C4657  C4658   1.360   .     S
C4657  N4663   1.360   .     D
C4658  C4659   1.500   .     S
C4659  C4661   1.390   .     S
C4659  C4705   1.390   .     S
C4660  C4661   1.390   .     D
C4660  C4704   1.390   .     S
N4662  N4663   1.360   .     S
N4662  Fe3800  2.091   1_565 S
N4663  Fe4710  2.139   .     S
H4664  C4667   0.750   .     S
H4664  C4668   0.750   .     S
C4665  C4667   1.360   .     S
C4665  N4671   1.360   .     D
C4666  C4667   1.360   .     S
C4666  N4672   1.360   .     D
C4667  C4668   1.500   .     S
C4668  C4670   1.390   .     S
C4668  C4696   1.390   .     S
C4669  C4670   1.390   .     D
C4669  C4695   1.390   .     S
N4671  N4672   1.360   .     S
N4671  Fe4711  2.091   .     S
N4672  Fe4709  2.139   .     S
H4673  C4676   0.750   .     S
H4673  C4677   0.750   .     S
C4674  C4676   1.360   .     S
C4674  N4680   1.360   .     D
C4675  C1028   1.360   1_556 S
C4675  N4681   1.360   .     D
C4676  C4677   1.500   .     S
C4677  C4679   1.390   .     S
C4678  C4679   1.390   .     D
N4681  N1032   1.360   1_556 S
N4681  Fe4712  2.139   .     S
H4682  C4685   0.750   .     S
H4682  C4686   0.750   .     S
C4683  C4685   1.360   .     S
C4683  N4689   1.360   .     D
C4684  C1037   1.360   1_556 S
C4684  N4690   1.360   .     D
C4685  C4686   1.500   .     S
C4686  C4688   1.390   .     S
C4687  C4688   1.390   .     D
N4689  Fe4709  2.091   .     S
N4690  N1041   1.360   1_556 S
N4690  Fe4711  2.139   .     S
H4691  C4694   0.750   .     S
H4691  C4695   0.750   .     S
C4692  C4694   1.360   .     S
C4692  N4698   1.360   .     D
C4693  C4694   1.360   .     S
C4693  N4699   1.360   .     D
C4694  C4695   1.500   .     S
C4695  C4697   1.390   .     S
C4696  C4697   1.390   .     D
N4698  N4699   1.360   .     S
N4699  Fe4712  2.139   .     S
H4700  C4703   0.750   .     S
H4700  C4704   0.750   .     S
C4701  C4703   1.360   .     S
C4701  N4707   1.360   .     D
C4702  C4703   1.360   .     S
C4702  N4708   1.360   .     D
C4703  C4704   1.500   .     S
C4704  C4706   1.390   .     S
C4705  C4706   1.390   .     D
N4707  N4708   1.360   .     S
N4707  Fe4785  2.091   .     S
N4708  Fe4787  2.139   .     S
Fe4710 N3768   2.091   1_565 S
Fe4710 N3786   2.091   1_565 S
H4713  C4716   0.750   .     S
H4713  C4717   0.750   .     S
C4714  C4716   1.360   .     S
C4714  N4720   1.360   .     D
C4715  N4721   1.360   .     D
C4716  C1067   1.360   1_556 S
C4716  C4717   1.500   .     S
C4717  C4719   1.390   .     S
C4717  C1115   1.390   1_556 S
C4718  C4719   1.390   .     D
C4718  C1114   1.390   1_556 S
N4720  N1073   1.360   1_556 S
N4720  Fe3876  2.091   1_565 S
N4721  Fe4786  2.139   .     S
H4722  C4725   0.750   .     S
H4722  C4726   0.750   .     S
C4723  C4725   1.360   .     S
C4723  N4729   1.360   .     D
C4724  N4730   1.360   .     D
C4725  C1076   1.360   1_556 S
C4725  C4726   1.500   .     S
C4726  C4728   1.390   .     S
C4726  C1106   1.390   1_556 S
C4727  C4728   1.390   .     D
C4727  C1105   1.390   1_556 S
N4729  N1082   1.360   1_556 S
N4729  Fe4863  2.091   .     S
N4730  Fe4861  2.139   .     S
H4731  C4734   0.750   .     S
H4731  C4735   0.750   .     S
C4732  C4734   1.360   .     S
C4732  N4738   1.360   .     D
C4733  C4734   1.360   .     S
C4733  N4739   1.360   .     D
C4734  C4735   1.500   .     S
C4735  C4737   1.390   .     S
C4735  C4781   1.390   .     S
C4736  C4737   1.390   .     D
C4736  C4780   1.390   .     S
N4738  N4739   1.360   .     S
N4738  Fe3876  2.091   1_565 S
N4739  Fe4786  2.139   .     S
H4740  C4743   0.750   .     S
H4740  C4744   0.750   .     S
C4741  C4743   1.360   .     S
C4741  N4747   1.360   .     D
C4742  C4743   1.360   .     S
C4742  N4748   1.360   .     D
C4743  C4744   1.500   .     S
C4744  C4746   1.390   .     S
C4744  C4772   1.390   .     S
C4745  C4746   1.390   .     D
C4745  C4771   1.390   .     S
N4747  N4748   1.360   .     S
N4747  Fe4787  2.091   .     S
N4748  Fe4785  2.139   .     S
H4749  C4752   0.750   .     S
H4749  C4753   0.750   .     S
C4750  C4752   1.360   .     S
C4750  N4756   1.360   .     D
C4751  C1104   1.360   1_556 S
C4751  N4757   1.360   .     D
C4752  C4753   1.500   .     S
C4753  C4755   1.390   .     S
C4754  C4755   1.390   .     D
N4757  N1108   1.360   1_556 S
N4757  Fe4788  2.139   .     S
H4758  C4761   0.750   .     S
H4758  C4762   0.750   .     S
C4759  C4761   1.360   .     S
C4759  N4765   1.360   .     D
C4760  C1113   1.360   1_556 S
C4760  N4766   1.360   .     D
C4761  C4762   1.500   .     S
C4762  C4764   1.390   .     S
C4763  C4764   1.390   .     D
N4765  Fe4785  2.091   .     S
N4766  N1117   1.360   1_556 S
N4766  Fe4787  2.139   .     S
H4767  C4770   0.750   .     S
H4767  C4771   0.750   .     S
C4768  C4770   1.360   .     S
C4768  N4774   1.360   .     D
C4769  C4770   1.360   .     S
C4769  N4775   1.360   .     D
C4770  C4771   1.500   .     S
C4771  C4773   1.390   .     S
C4772  C4773   1.390   .     D
N4774  N4775   1.360   .     S
N4775  Fe4788  2.139   .     S
H4776  C4779   0.750   .     S
H4776  C4780   0.750   .     S
C4777  C4779   1.360   .     S
C4777  N4783   1.360   .     D
C4778  C4779   1.360   .     S
C4778  N4784   1.360   .     D
C4779  C4780   1.500   .     S
C4780  C4782   1.390   .     S
C4781  C4782   1.390   .     D
N4783  N4784   1.360   .     S
N4783  Fe4861  2.091   .     S
N4784  Fe4863  2.139   .     S
Fe4786 N3844   2.091   1_565 S
Fe4786 N3862   2.091   1_565 S
H4789  C4792   0.750   .     S
H4789  C4793   0.750   .     S
C4790  C4792   1.360   .     S
C4790  N4796   1.360   .     D
C4791  N4797   1.360   .     D
C4792  C1143   1.360   1_556 S
C4792  C4793   1.500   .     S
C4793  C4795   1.390   .     S
C4793  C1191   1.390   1_556 S
C4794  C4795   1.390   .     D
C4794  C1190   1.390   1_556 S
N4796  N1149   1.360   1_556 S
N4796  Fe3952  2.091   1_565 S
N4797  Fe4862  2.139   .     S
H4798  C4801   0.750   .     S
H4798  C4802   0.750   .     S
C4799  C4801   1.360   .     S
C4799  N4805   1.360   .     D
C4800  N4806   1.360   .     D
C4801  C1152   1.360   1_556 S
C4801  C4802   1.500   .     S
C4802  C4804   1.390   .     S
C4802  C1182   1.390   1_556 S
C4803  C4804   1.390   .     D
C4803  C1181   1.390   1_556 S
N4805  N1158   1.360   1_556 S
N4805  Fe4635  2.091   1_655 S
N4806  Fe4633  2.139   1_655 S
H4807  C4810   0.750   .     S
H4807  C4811   0.750   .     S
C4808  C4810   1.360   .     S
C4808  N4814   1.360   .     D
C4809  C4810   1.360   .     S
C4809  N4815   1.360   .     D
C4810  C4811   1.500   .     S
C4811  C4813   1.390   .     S
C4811  C4857   1.390   .     S
C4812  C4813   1.390   .     D
C4812  C4856   1.390   .     S
N4814  N4815   1.360   .     S
N4814  Fe3952  2.091   1_565 S
N4815  Fe4862  2.139   .     S
H4816  C4819   0.750   .     S
H4816  C4820   0.750   .     S
C4817  C4819   1.360   .     S
C4817  N4823   1.360   .     D
C4818  C4819   1.360   .     S
C4818  N4824   1.360   .     D
C4819  C4820   1.500   .     S
C4820  C4822   1.390   .     S
C4820  C4848   1.390   .     S
C4821  C4822   1.390   .     D
C4821  C4847   1.390   .     S
N4823  N4824   1.360   .     S
N4823  Fe4863  2.091   .     S
N4824  Fe4861  2.139   .     S
H4825  C4828   0.750   .     S
H4825  C4829   0.750   .     S
C4826  C4828   1.360   .     S
C4826  N4832   1.360   .     D
C4827  C1180   1.360   1_556 S
C4827  N4833   1.360   .     D
C4828  C4829   1.500   .     S
C4829  C4831   1.390   .     S
C4830  C4831   1.390   .     D
N4833  N1184   1.360   1_556 S
N4833  Fe4864  2.139   .     S
H4834  C4837   0.750   .     S
H4834  C4838   0.750   .     S
C4835  C4837   1.360   .     S
C4835  N4841   1.360   .     D
C4836  C1189   1.360   1_556 S
C4836  N4842   1.360   .     D
C4837  C4838   1.500   .     S
C4838  C4840   1.390   .     S
C4839  C4840   1.390   .     D
N4841  Fe4861  2.091   .     S
N4842  N1193   1.360   1_556 S
N4842  Fe4863  2.139   .     S
H4843  C4846   0.750   .     S
H4843  C4847   0.750   .     S
C4844  C4846   1.360   .     S
C4844  N4850   1.360   .     D
C4845  C4846   1.360   .     S
C4845  N4851   1.360   .     D
C4846  C4847   1.500   .     S
C4847  C4849   1.390   .     S
C4848  C4849   1.390   .     D
N4850  N4851   1.360   .     S
N4851  Fe4864  2.139   .     S
H4852  C4855   0.750   .     S
H4852  C4856   0.750   .     S
C4853  C4855   1.360   .     S
C4853  N4859   1.360   .     D
C4854  C4855   1.360   .     S
C4854  N4860   1.360   .     D
C4855  C4856   1.500   .     S
C4856  C4858   1.390   .     S
C4857  C4858   1.390   .     D
N4859  N4860   1.360   .     S
N4859  Fe4633  2.091   1_655 S
N4860  Fe4635  2.139   1_655 S
Fe4862 N3920   2.091   1_565 S
Fe4862 N3938   2.091   1_565 S
