data_Fe(bdp)_collapsed_4-4-4
_audit_creation_date              2020-05-22
_audit_creation_method            'Materials Studio'
_symmetry_space_group_name_H-M    'P1'
_symmetry_Int_Tables_number       1
_symmetry_cell_setting            triclinic
loop_
_symmetry_equiv_pos_as_xyz
  x,y,z
_cell_length_a                    100.3420
_cell_length_b                    27.5511
_cell_length_c                    27.9396
_cell_angle_alpha                 90.0000
_cell_angle_beta                  91.6527
_cell_angle_gamma                 90.0000
loop_
_atom_site_label
_atom_site_type_symbol
_atom_site_fract_x
_atom_site_fract_y
_atom_site_fract_z
_atom_site_U_iso_or_equiv
_atom_site_adp_type
_atom_site_occupancy
H1     H     0.08362   0.19282   0.24459   0.12311  Uiso   0.00
C2     C     0.09798   0.21826   0.20948   0.12311  Uiso   1.00
C3     C     0.09983   0.18329   0.03017   0.12311  Uiso   1.00
C4     C     0.09102   0.19667   0.24471   0.12311  Uiso   1.00
C5     C     0.07622   0.18896   0.24448   0.12311  Uiso   1.00
C6     C     0.05418   0.21632   0.22131   0.12311  Uiso   1.00
C7     C     0.06789   0.21779   0.21580   0.12311  Uiso   1.00
N8     N     0.11109   0.21823   0.22318   0.12311  Uiso   1.00
N9     N     0.11224   0.19662   0.01686   0.12311  Uiso   1.00
H10    H     0.09432   0.23111   0.18042   0.12311  Uiso   1.00
H11    H     0.09770   0.16743   0.05915   0.12311  Uiso   1.00
H12    H     0.04849   0.23602   0.20171   0.12311  Uiso   1.00
H13    H     0.07158   0.23848   0.19242   0.12311  Uiso   1.00
H14    H     0.20862   0.06782   0.24459   0.12311  Uiso   0.00
C15    C     0.22298   0.09326   0.20948   0.12311  Uiso   1.00
C16    C     0.22483   0.05829   0.03017   0.12311  Uiso   1.00
C17    C     0.21602   0.07167   0.24471   0.12311  Uiso   1.00
C18    C     0.20122   0.06396   0.24448   0.12311  Uiso   1.00
C19    C     0.17918   0.09132   0.22131   0.12311  Uiso   1.00
C20    C     0.19289   0.09279   0.21580   0.12311  Uiso   1.00
N21    N     0.23609   0.09323   0.22318   0.12311  Uiso   1.00
N22    N     0.23724   0.07162   0.01686   0.12311  Uiso   1.00
H23    H     0.21932   0.10611   0.18042   0.12311  Uiso   1.00
H24    H     0.22270   0.04243   0.05915   0.12311  Uiso   1.00
H25    H     0.17349   0.11102   0.20171   0.12311  Uiso   1.00
H26    H     0.19658   0.11348   0.19242   0.12311  Uiso   1.00
H27    H     0.16638   0.19282   0.13041   0.12311  Uiso   0.00
C28    C     0.15202   0.21826   0.16552   0.12311  Uiso   1.00
C29    C     0.15017   0.18329   0.09483   0.12311  Uiso   1.00
C30    C     0.15898   0.19667   0.13029   0.12311  Uiso   1.00
C31    C     0.17378   0.18896   0.13052   0.12311  Uiso   1.00
C32    C     0.19582   0.21632   0.15369   0.12311  Uiso   1.00
C33    C     0.18211   0.21779   0.15920   0.12311  Uiso   1.00
N34    N     0.13891   0.21823   0.15182   0.12311  Uiso   1.00
N35    N     0.13776   0.19662   0.10814   0.12311  Uiso   1.00
H36    H     0.15568   0.23111   0.19458   0.12311  Uiso   1.00
H37    H     0.15230   0.16743   0.06585   0.12311  Uiso   1.00
H38    H     0.20151   0.23602   0.17329   0.12311  Uiso   1.00
H39    H     0.17842   0.23848   0.18258   0.12311  Uiso   1.00
H40    H     0.04138   0.06782   0.13041   0.12311  Uiso   0.00
C41    C     0.02702   0.09326   0.16552   0.12311  Uiso   1.00
C42    C     0.02517   0.05829   0.09483   0.12311  Uiso   1.00
C43    C     0.03398   0.07167   0.13029   0.12311  Uiso   1.00
C44    C     0.04878   0.06396   0.13052   0.12311  Uiso   1.00
C45    C     0.07082   0.09132   0.15369   0.12311  Uiso   1.00
C46    C     0.05711   0.09279   0.15920   0.12311  Uiso   1.00
N47    N     0.01391   0.09323   0.15182   0.12311  Uiso   1.00
N48    N     0.01276   0.07162   0.10814   0.12311  Uiso   1.00
H49    H     0.03068   0.10611   0.19458   0.12311  Uiso   1.00
H50    H     0.02730   0.04243   0.06585   0.12311  Uiso   1.00
H51    H     0.07651   0.11102   0.17329   0.12311  Uiso   1.00
H52    H     0.05342   0.11348   0.18258   0.12311  Uiso   1.00
H53    H     0.16638   0.05718   0.00541   0.12311  Uiso   0.00
C54    C     0.15202   0.03174   0.04052   0.12311  Uiso   1.00
C55    C     0.15017   0.06671   0.21983   0.12311  Uiso   1.00
C56    C     0.15898   0.05333   0.00529   0.12311  Uiso   1.00
C57    C     0.17378   0.06104   0.00552   0.12311  Uiso   1.00
C58    C     0.19582   0.03368   0.02869   0.12311  Uiso   1.00
C59    C     0.18211   0.03221   0.03420   0.12311  Uiso   1.00
N60    N     0.13891   0.03177   0.02682   0.12311  Uiso   1.00
N61    N     0.13776   0.05338   0.23314   0.12311  Uiso   1.00
H62    H     0.15568   0.01889   0.06958   0.12311  Uiso   1.00
H63    H     0.15230   0.08257   0.19085   0.12311  Uiso   1.00
H64    H     0.20151   0.01398   0.04829   0.12311  Uiso   1.00
H65    H     0.17842   0.01152   0.05758   0.12311  Uiso   1.00
H66    H     0.04138   0.18218   0.00541   0.12311  Uiso   0.00
C67    C     0.02702   0.15674   0.04052   0.12311  Uiso   1.00
C68    C     0.02517   0.19171   0.21983   0.12311  Uiso   1.00
C69    C     0.03398   0.17833   0.00529   0.12311  Uiso   1.00
C70    C     0.04878   0.18604   0.00552   0.12311  Uiso   1.00
C71    C     0.07082   0.15868   0.02869   0.12311  Uiso   1.00
C72    C     0.05711   0.15721   0.03420   0.12311  Uiso   1.00
N73    N     0.01391   0.15677   0.02682   0.12311  Uiso   1.00
N74    N     0.01276   0.17838   0.23314   0.12311  Uiso   1.00
H75    H     0.03068   0.14389   0.06958   0.12311  Uiso   1.00
H76    H     0.02730   0.20757   0.19085   0.12311  Uiso   1.00
H77    H     0.07651   0.13898   0.04829   0.12311  Uiso   1.00
H78    H     0.05342   0.13652   0.05758   0.12311  Uiso   1.00
H79    H     0.08362   0.05718   0.11959   0.12311  Uiso   0.00
C80    C     0.09798   0.03174   0.08448   0.12311  Uiso   1.00
C81    C     0.09983   0.06671   0.15517   0.12311  Uiso   1.00
C82    C     0.09102   0.05333   0.11971   0.12311  Uiso   1.00
C83    C     0.07622   0.06104   0.11948   0.12311  Uiso   1.00
C84    C     0.05418   0.03368   0.09631   0.12311  Uiso   1.00
C85    C     0.06789   0.03221   0.09080   0.12311  Uiso   1.00
N86    N     0.11109   0.03177   0.09818   0.12311  Uiso   1.00
N87    N     0.11224   0.05338   0.14186   0.12311  Uiso   1.00
H88    H     0.09432   0.01889   0.05542   0.12311  Uiso   1.00
H89    H     0.09770   0.08257   0.18415   0.12311  Uiso   1.00
H90    H     0.04849   0.01398   0.07671   0.12311  Uiso   1.00
H91    H     0.07158   0.01152   0.06742   0.12311  Uiso   1.00
H92    H     0.20862   0.18218   0.11959   0.12311  Uiso   0.00
C93    C     0.22298   0.15674   0.08448   0.12311  Uiso   1.00
C94    C     0.22483   0.19171   0.15517   0.12311  Uiso   1.00
C95    C     0.21602   0.17833   0.11971   0.12311  Uiso   1.00
C96    C     0.20122   0.18604   0.11948   0.12311  Uiso   1.00
C97    C     0.17918   0.15868   0.09631   0.12311  Uiso   1.00
C98    C     0.19289   0.15721   0.09080   0.12311  Uiso   1.00
N99    N     0.23609   0.15677   0.09818   0.12311  Uiso   1.00
N100   N     0.23724   0.17838   0.14186   0.12311  Uiso   1.00
H101   H     0.21932   0.14389   0.05542   0.12311  Uiso   1.00
H102   H     0.22270   0.20757   0.18415   0.12311  Uiso   1.00
H103   H     0.17349   0.13898   0.07671   0.12311  Uiso   1.00
H104   H     0.19658   0.13652   0.06742   0.12311  Uiso   1.00
Fe105  Fe    0.00000   0.11461   0.06250   0.12311  Uiso   1.00
Fe106  Fe    0.12500   0.23961   0.06250   0.12311  Uiso   1.00
Fe107  Fe    0.00000   0.13539   0.18750   0.12311  Uiso   1.00
Fe108  Fe    0.12500   0.01039   0.18750   0.12311  Uiso   1.00
H109   H     0.33362   0.19282   0.24459   0.12311  Uiso   0.00
C110   C     0.34798   0.21826   0.20948   0.12311  Uiso   1.00
C111   C     0.34983   0.18329   0.03017   0.12311  Uiso   1.00
C112   C     0.34102   0.19667   0.24471   0.12311  Uiso   1.00
C113   C     0.32622   0.18896   0.24448   0.12311  Uiso   1.00
C114   C     0.30418   0.21632   0.22131   0.12311  Uiso   1.00
C115   C     0.31789   0.21779   0.21580   0.12311  Uiso   1.00
N116   N     0.36109   0.21823   0.22318   0.12311  Uiso   1.00
N117   N     0.36224   0.19662   0.01686   0.12311  Uiso   1.00
H118   H     0.34432   0.23111   0.18042   0.12311  Uiso   1.00
H119   H     0.34770   0.16743   0.05915   0.12311  Uiso   1.00
H120   H     0.29849   0.23602   0.20171   0.12311  Uiso   1.00
H121   H     0.32158   0.23848   0.19242   0.12311  Uiso   1.00
H122   H     0.45862   0.06782   0.24459   0.12311  Uiso   0.00
C123   C     0.47298   0.09326   0.20948   0.12311  Uiso   1.00
C124   C     0.47483   0.05829   0.03017   0.12311  Uiso   1.00
C125   C     0.46602   0.07167   0.24471   0.12311  Uiso   1.00
C126   C     0.45122   0.06396   0.24448   0.12311  Uiso   1.00
C127   C     0.42918   0.09132   0.22131   0.12311  Uiso   1.00
C128   C     0.44289   0.09279   0.21580   0.12311  Uiso   1.00
N129   N     0.48609   0.09323   0.22318   0.12311  Uiso   1.00
N130   N     0.48724   0.07162   0.01686   0.12311  Uiso   1.00
H131   H     0.46932   0.10611   0.18042   0.12311  Uiso   1.00
H132   H     0.47270   0.04243   0.05915   0.12311  Uiso   1.00
H133   H     0.42349   0.11102   0.20171   0.12311  Uiso   1.00
H134   H     0.44658   0.11348   0.19242   0.12311  Uiso   1.00
H135   H     0.41638   0.19282   0.13041   0.12311  Uiso   0.00
C136   C     0.40202   0.21826   0.16552   0.12311  Uiso   1.00
C137   C     0.40017   0.18329   0.09483   0.12311  Uiso   1.00
C138   C     0.40898   0.19667   0.13029   0.12311  Uiso   1.00
C139   C     0.42378   0.18896   0.13052   0.12311  Uiso   1.00
C140   C     0.44582   0.21632   0.15369   0.12311  Uiso   1.00
C141   C     0.43211   0.21779   0.15920   0.12311  Uiso   1.00
N142   N     0.38891   0.21823   0.15182   0.12311  Uiso   1.00
N143   N     0.38776   0.19662   0.10814   0.12311  Uiso   1.00
H144   H     0.40568   0.23111   0.19458   0.12311  Uiso   1.00
H145   H     0.40230   0.16743   0.06585   0.12311  Uiso   1.00
H146   H     0.45151   0.23602   0.17329   0.12311  Uiso   1.00
H147   H     0.42842   0.23848   0.18258   0.12311  Uiso   1.00
H148   H     0.29138   0.06782   0.13041   0.12311  Uiso   0.00
C149   C     0.27702   0.09326   0.16552   0.12311  Uiso   1.00
C150   C     0.27517   0.05829   0.09483   0.12311  Uiso   1.00
C151   C     0.28398   0.07167   0.13029   0.12311  Uiso   1.00
C152   C     0.29878   0.06396   0.13052   0.12311  Uiso   1.00
C153   C     0.32082   0.09132   0.15369   0.12311  Uiso   1.00
C154   C     0.30711   0.09279   0.15920   0.12311  Uiso   1.00
N155   N     0.26391   0.09323   0.15182   0.12311  Uiso   1.00
N156   N     0.26276   0.07162   0.10814   0.12311  Uiso   1.00
H157   H     0.28068   0.10611   0.19458   0.12311  Uiso   1.00
H158   H     0.27730   0.04243   0.06585   0.12311  Uiso   1.00
H159   H     0.32651   0.11102   0.17329   0.12311  Uiso   1.00
H160   H     0.30342   0.11348   0.18258   0.12311  Uiso   1.00
H161   H     0.41638   0.05718   0.00541   0.12311  Uiso   0.00
C162   C     0.40202   0.03174   0.04052   0.12311  Uiso   1.00
C163   C     0.40017   0.06671   0.21983   0.12311  Uiso   1.00
C164   C     0.40898   0.05333   0.00529   0.12311  Uiso   1.00
C165   C     0.42378   0.06104   0.00552   0.12311  Uiso   1.00
C166   C     0.44582   0.03368   0.02869   0.12311  Uiso   1.00
C167   C     0.43211   0.03221   0.03420   0.12311  Uiso   1.00
N168   N     0.38891   0.03177   0.02682   0.12311  Uiso   1.00
N169   N     0.38776   0.05338   0.23314   0.12311  Uiso   1.00
H170   H     0.40568   0.01889   0.06958   0.12311  Uiso   1.00
H171   H     0.40230   0.08257   0.19085   0.12311  Uiso   1.00
H172   H     0.45151   0.01398   0.04829   0.12311  Uiso   1.00
H173   H     0.42842   0.01152   0.05758   0.12311  Uiso   1.00
H174   H     0.29138   0.18218   0.00541   0.12311  Uiso   0.00
C175   C     0.27702   0.15674   0.04052   0.12311  Uiso   1.00
C176   C     0.27517   0.19171   0.21983   0.12311  Uiso   1.00
C177   C     0.28398   0.17833   0.00529   0.12311  Uiso   1.00
C178   C     0.29878   0.18604   0.00552   0.12311  Uiso   1.00
C179   C     0.32082   0.15868   0.02869   0.12311  Uiso   1.00
C180   C     0.30711   0.15721   0.03420   0.12311  Uiso   1.00
N181   N     0.26391   0.15677   0.02682   0.12311  Uiso   1.00
N182   N     0.26276   0.17838   0.23314   0.12311  Uiso   1.00
H183   H     0.28068   0.14389   0.06958   0.12311  Uiso   1.00
H184   H     0.27730   0.20757   0.19085   0.12311  Uiso   1.00
H185   H     0.32651   0.13898   0.04829   0.12311  Uiso   1.00
H186   H     0.30342   0.13652   0.05758   0.12311  Uiso   1.00
H187   H     0.33362   0.05718   0.11959   0.12311  Uiso   0.00
C188   C     0.34798   0.03174   0.08448   0.12311  Uiso   1.00
C189   C     0.34983   0.06671   0.15517   0.12311  Uiso   1.00
C190   C     0.34102   0.05333   0.11971   0.12311  Uiso   1.00
C191   C     0.32622   0.06104   0.11948   0.12311  Uiso   1.00
C192   C     0.30418   0.03368   0.09631   0.12311  Uiso   1.00
C193   C     0.31789   0.03221   0.09080   0.12311  Uiso   1.00
N194   N     0.36109   0.03177   0.09818   0.12311  Uiso   1.00
N195   N     0.36224   0.05338   0.14186   0.12311  Uiso   1.00
H196   H     0.34432   0.01889   0.05542   0.12311  Uiso   1.00
H197   H     0.34770   0.08257   0.18415   0.12311  Uiso   1.00
H198   H     0.29849   0.01398   0.07671   0.12311  Uiso   1.00
H199   H     0.32158   0.01152   0.06742   0.12311  Uiso   1.00
H200   H     0.45862   0.18218   0.11959   0.12311  Uiso   0.00
C201   C     0.47298   0.15674   0.08448   0.12311  Uiso   1.00
C202   C     0.47483   0.19171   0.15517   0.12311  Uiso   1.00
C203   C     0.46602   0.17833   0.11971   0.12311  Uiso   1.00
C204   C     0.45122   0.18604   0.11948   0.12311  Uiso   1.00
C205   C     0.42918   0.15868   0.09631   0.12311  Uiso   1.00
C206   C     0.44289   0.15721   0.09080   0.12311  Uiso   1.00
N207   N     0.48609   0.15677   0.09818   0.12311  Uiso   1.00
N208   N     0.48724   0.17838   0.14186   0.12311  Uiso   1.00
H209   H     0.46932   0.14389   0.05542   0.12311  Uiso   1.00
H210   H     0.47270   0.20757   0.18415   0.12311  Uiso   1.00
H211   H     0.42349   0.13898   0.07671   0.12311  Uiso   1.00
H212   H     0.44658   0.13652   0.06742   0.12311  Uiso   1.00
Fe213  Fe    0.25000   0.11461   0.06250   0.12311  Uiso   1.00
Fe214  Fe    0.37500   0.23961   0.06250   0.12311  Uiso   1.00
Fe215  Fe    0.25000   0.13539   0.18750   0.12311  Uiso   1.00
Fe216  Fe    0.37500   0.01039   0.18750   0.12311  Uiso   1.00
H217   H     0.58362   0.19282   0.24459   0.12311  Uiso   0.00
C218   C     0.59798   0.21826   0.20948   0.12311  Uiso   1.00
C219   C     0.59983   0.18329   0.03017   0.12311  Uiso   1.00
C220   C     0.59102   0.19667   0.24471   0.12311  Uiso   1.00
C221   C     0.57622   0.18896   0.24448   0.12311  Uiso   1.00
C222   C     0.55418   0.21632   0.22131   0.12311  Uiso   1.00
C223   C     0.56789   0.21779   0.21580   0.12311  Uiso   1.00
N224   N     0.61109   0.21823   0.22318   0.12311  Uiso   1.00
N225   N     0.61224   0.19662   0.01686   0.12311  Uiso   1.00
H226   H     0.59432   0.23111   0.18042   0.12311  Uiso   1.00
H227   H     0.59770   0.16743   0.05915   0.12311  Uiso   1.00
H228   H     0.54849   0.23602   0.20171   0.12311  Uiso   1.00
H229   H     0.57158   0.23848   0.19242   0.12311  Uiso   1.00
H230   H     0.70862   0.06782   0.24459   0.12311  Uiso   0.00
C231   C     0.72298   0.09326   0.20948   0.12311  Uiso   1.00
C232   C     0.72483   0.05829   0.03017   0.12311  Uiso   1.00
C233   C     0.71602   0.07167   0.24471   0.12311  Uiso   1.00
C234   C     0.70122   0.06396   0.24448   0.12311  Uiso   1.00
C235   C     0.67918   0.09132   0.22131   0.12311  Uiso   1.00
C236   C     0.69289   0.09279   0.21580   0.12311  Uiso   1.00
N237   N     0.73609   0.09323   0.22318   0.12311  Uiso   1.00
N238   N     0.73724   0.07162   0.01686   0.12311  Uiso   1.00
H239   H     0.71932   0.10611   0.18042   0.12311  Uiso   1.00
H240   H     0.72270   0.04243   0.05915   0.12311  Uiso   1.00
H241   H     0.67349   0.11102   0.20171   0.12311  Uiso   1.00
H242   H     0.69658   0.11348   0.19242   0.12311  Uiso   1.00
H243   H     0.66638   0.19282   0.13041   0.12311  Uiso   0.00
C244   C     0.65202   0.21826   0.16552   0.12311  Uiso   1.00
C245   C     0.65017   0.18329   0.09483   0.12311  Uiso   1.00
C246   C     0.65898   0.19667   0.13029   0.12311  Uiso   1.00
C247   C     0.67378   0.18896   0.13052   0.12311  Uiso   1.00
C248   C     0.69582   0.21632   0.15369   0.12311  Uiso   1.00
C249   C     0.68211   0.21779   0.15920   0.12311  Uiso   1.00
N250   N     0.63891   0.21823   0.15182   0.12311  Uiso   1.00
N251   N     0.63776   0.19662   0.10814   0.12311  Uiso   1.00
H252   H     0.65568   0.23111   0.19458   0.12311  Uiso   1.00
H253   H     0.65230   0.16743   0.06585   0.12311  Uiso   1.00
H254   H     0.70151   0.23602   0.17329   0.12311  Uiso   1.00
H255   H     0.67842   0.23848   0.18258   0.12311  Uiso   1.00
H256   H     0.54138   0.06782   0.13041   0.12311  Uiso   0.00
C257   C     0.52702   0.09326   0.16552   0.12311  Uiso   1.00
C258   C     0.52517   0.05829   0.09483   0.12311  Uiso   1.00
C259   C     0.53398   0.07167   0.13029   0.12311  Uiso   1.00
C260   C     0.54878   0.06396   0.13052   0.12311  Uiso   1.00
C261   C     0.57082   0.09132   0.15369   0.12311  Uiso   1.00
C262   C     0.55711   0.09279   0.15920   0.12311  Uiso   1.00
N263   N     0.51391   0.09323   0.15182   0.12311  Uiso   1.00
N264   N     0.51276   0.07162   0.10814   0.12311  Uiso   1.00
H265   H     0.53068   0.10611   0.19458   0.12311  Uiso   1.00
H266   H     0.52730   0.04243   0.06585   0.12311  Uiso   1.00
H267   H     0.57651   0.11102   0.17329   0.12311  Uiso   1.00
H268   H     0.55342   0.11348   0.18258   0.12311  Uiso   1.00
H269   H     0.66638   0.05718   0.00541   0.12311  Uiso   0.00
C270   C     0.65202   0.03174   0.04052   0.12311  Uiso   1.00
C271   C     0.65017   0.06671   0.21983   0.12311  Uiso   1.00
C272   C     0.65898   0.05333   0.00529   0.12311  Uiso   1.00
C273   C     0.67378   0.06104   0.00552   0.12311  Uiso   1.00
C274   C     0.69582   0.03368   0.02869   0.12311  Uiso   1.00
C275   C     0.68211   0.03221   0.03420   0.12311  Uiso   1.00
N276   N     0.63891   0.03177   0.02682   0.12311  Uiso   1.00
N277   N     0.63776   0.05338   0.23314   0.12311  Uiso   1.00
H278   H     0.65568   0.01889   0.06958   0.12311  Uiso   1.00
H279   H     0.65230   0.08257   0.19085   0.12311  Uiso   1.00
H280   H     0.70151   0.01398   0.04829   0.12311  Uiso   1.00
H281   H     0.67842   0.01152   0.05758   0.12311  Uiso   1.00
H282   H     0.54138   0.18218   0.00541   0.12311  Uiso   0.00
C283   C     0.52702   0.15674   0.04052   0.12311  Uiso   1.00
C284   C     0.52517   0.19171   0.21983   0.12311  Uiso   1.00
C285   C     0.53398   0.17833   0.00529   0.12311  Uiso   1.00
C286   C     0.54878   0.18604   0.00552   0.12311  Uiso   1.00
C287   C     0.57082   0.15868   0.02869   0.12311  Uiso   1.00
C288   C     0.55711   0.15721   0.03420   0.12311  Uiso   1.00
N289   N     0.51391   0.15677   0.02682   0.12311  Uiso   1.00
N290   N     0.51276   0.17838   0.23314   0.12311  Uiso   1.00
H291   H     0.53068   0.14389   0.06958   0.12311  Uiso   1.00
H292   H     0.52730   0.20757   0.19085   0.12311  Uiso   1.00
H293   H     0.57651   0.13898   0.04829   0.12311  Uiso   1.00
H294   H     0.55342   0.13652   0.05758   0.12311  Uiso   1.00
H295   H     0.58362   0.05718   0.11959   0.12311  Uiso   0.00
C296   C     0.59798   0.03174   0.08448   0.12311  Uiso   1.00
C297   C     0.59983   0.06671   0.15517   0.12311  Uiso   1.00
C298   C     0.59102   0.05333   0.11971   0.12311  Uiso   1.00
C299   C     0.57622   0.06104   0.11948   0.12311  Uiso   1.00
C300   C     0.55418   0.03368   0.09631   0.12311  Uiso   1.00
C301   C     0.56789   0.03221   0.09080   0.12311  Uiso   1.00
N302   N     0.61109   0.03177   0.09818   0.12311  Uiso   1.00
N303   N     0.61224   0.05338   0.14186   0.12311  Uiso   1.00
H304   H     0.59432   0.01889   0.05542   0.12311  Uiso   1.00
H305   H     0.59770   0.08257   0.18415   0.12311  Uiso   1.00
H306   H     0.54849   0.01398   0.07671   0.12311  Uiso   1.00
H307   H     0.57158   0.01152   0.06742   0.12311  Uiso   1.00
H308   H     0.70862   0.18218   0.11959   0.12311  Uiso   0.00
C309   C     0.72298   0.15674   0.08448   0.12311  Uiso   1.00
C310   C     0.72483   0.19171   0.15517   0.12311  Uiso   1.00
C311   C     0.71602   0.17833   0.11971   0.12311  Uiso   1.00
C312   C     0.70122   0.18604   0.11948   0.12311  Uiso   1.00
C313   C     0.67918   0.15868   0.09631   0.12311  Uiso   1.00
C314   C     0.69289   0.15721   0.09080   0.12311  Uiso   1.00
N315   N     0.73609   0.15677   0.09818   0.12311  Uiso   1.00
N316   N     0.73724   0.17838   0.14186   0.12311  Uiso   1.00
H317   H     0.71932   0.14389   0.05542   0.12311  Uiso   1.00
H318   H     0.72270   0.20757   0.18415   0.12311  Uiso   1.00
H319   H     0.67349   0.13898   0.07671   0.12311  Uiso   1.00
H320   H     0.69658   0.13652   0.06742   0.12311  Uiso   1.00
Fe321  Fe    0.50000   0.11461   0.06250   0.12311  Uiso   1.00
Fe322  Fe    0.62500   0.23961   0.06250   0.12311  Uiso   1.00
Fe323  Fe    0.50000   0.13539   0.18750   0.12311  Uiso   1.00
Fe324  Fe    0.62500   0.01039   0.18750   0.12311  Uiso   1.00
H325   H     0.83362   0.19282   0.24459   0.12311  Uiso   0.00
C326   C     0.84798   0.21826   0.20948   0.12311  Uiso   1.00
C327   C     0.84983   0.18329   0.03017   0.12311  Uiso   1.00
C328   C     0.84102   0.19667   0.24471   0.12311  Uiso   1.00
C329   C     0.82622   0.18896   0.24448   0.12311  Uiso   1.00
C330   C     0.80418   0.21632   0.22131   0.12311  Uiso   1.00
C331   C     0.81789   0.21779   0.21580   0.12311  Uiso   1.00
N332   N     0.86109   0.21823   0.22318   0.12311  Uiso   1.00
N333   N     0.86224   0.19662   0.01686   0.12311  Uiso   1.00
H334   H     0.84432   0.23111   0.18042   0.12311  Uiso   1.00
H335   H     0.84770   0.16743   0.05915   0.12311  Uiso   1.00
H336   H     0.79849   0.23602   0.20171   0.12311  Uiso   1.00
H337   H     0.82158   0.23848   0.19242   0.12311  Uiso   1.00
H338   H     0.95862   0.06782   0.24459   0.12311  Uiso   0.00
C339   C     0.97298   0.09326   0.20948   0.12311  Uiso   1.00
C340   C     0.97483   0.05829   0.03017   0.12311  Uiso   1.00
C341   C     0.96602   0.07167   0.24471   0.12311  Uiso   1.00
C342   C     0.95122   0.06396   0.24448   0.12311  Uiso   1.00
C343   C     0.92918   0.09132   0.22131   0.12311  Uiso   1.00
C344   C     0.94289   0.09279   0.21580   0.12311  Uiso   1.00
N345   N     0.98609   0.09323   0.22318   0.12311  Uiso   1.00
N346   N     0.98724   0.07162   0.01686   0.12311  Uiso   1.00
H347   H     0.96932   0.10611   0.18042   0.12311  Uiso   1.00
H348   H     0.97270   0.04243   0.05915   0.12311  Uiso   1.00
H349   H     0.92349   0.11102   0.20171   0.12311  Uiso   1.00
H350   H     0.94658   0.11348   0.19242   0.12311  Uiso   1.00
H351   H     0.91638   0.19282   0.13041   0.12311  Uiso   0.00
C352   C     0.90202   0.21826   0.16552   0.12311  Uiso   1.00
C353   C     0.90017   0.18329   0.09483   0.12311  Uiso   1.00
C354   C     0.90898   0.19667   0.13029   0.12311  Uiso   1.00
C355   C     0.92378   0.18896   0.13052   0.12311  Uiso   1.00
C356   C     0.94582   0.21632   0.15369   0.12311  Uiso   1.00
C357   C     0.93211   0.21779   0.15920   0.12311  Uiso   1.00
N358   N     0.88891   0.21823   0.15182   0.12311  Uiso   1.00
N359   N     0.88776   0.19662   0.10814   0.12311  Uiso   1.00
H360   H     0.90568   0.23111   0.19458   0.12311  Uiso   1.00
H361   H     0.90230   0.16743   0.06585   0.12311  Uiso   1.00
H362   H     0.95151   0.23602   0.17329   0.12311  Uiso   1.00
H363   H     0.92842   0.23848   0.18258   0.12311  Uiso   1.00
H364   H     0.79138   0.06782   0.13041   0.12311  Uiso   0.00
C365   C     0.77702   0.09326   0.16552   0.12311  Uiso   1.00
C366   C     0.77517   0.05829   0.09483   0.12311  Uiso   1.00
C367   C     0.78398   0.07167   0.13029   0.12311  Uiso   1.00
C368   C     0.79878   0.06396   0.13052   0.12311  Uiso   1.00
C369   C     0.82082   0.09132   0.15369   0.12311  Uiso   1.00
C370   C     0.80711   0.09279   0.15920   0.12311  Uiso   1.00
N371   N     0.76391   0.09323   0.15182   0.12311  Uiso   1.00
N372   N     0.76276   0.07162   0.10814   0.12311  Uiso   1.00
H373   H     0.78068   0.10611   0.19458   0.12311  Uiso   1.00
H374   H     0.77730   0.04243   0.06585   0.12311  Uiso   1.00
H375   H     0.82651   0.11102   0.17329   0.12311  Uiso   1.00
H376   H     0.80342   0.11348   0.18258   0.12311  Uiso   1.00
H377   H     0.91638   0.05718   0.00541   0.12311  Uiso   0.00
C378   C     0.90202   0.03174   0.04052   0.12311  Uiso   1.00
C379   C     0.90017   0.06671   0.21983   0.12311  Uiso   1.00
C380   C     0.90898   0.05333   0.00529   0.12311  Uiso   1.00
C381   C     0.92378   0.06104   0.00552   0.12311  Uiso   1.00
C382   C     0.94582   0.03368   0.02869   0.12311  Uiso   1.00
C383   C     0.93211   0.03221   0.03420   0.12311  Uiso   1.00
N384   N     0.88891   0.03177   0.02682   0.12311  Uiso   1.00
N385   N     0.88776   0.05338   0.23314   0.12311  Uiso   1.00
H386   H     0.90568   0.01889   0.06958   0.12311  Uiso   1.00
H387   H     0.90230   0.08257   0.19085   0.12311  Uiso   1.00
H388   H     0.95151   0.01398   0.04829   0.12311  Uiso   1.00
H389   H     0.92842   0.01152   0.05758   0.12311  Uiso   1.00
H390   H     0.79138   0.18218   0.00541   0.12311  Uiso   0.00
C391   C     0.77702   0.15674   0.04052   0.12311  Uiso   1.00
C392   C     0.77517   0.19171   0.21983   0.12311  Uiso   1.00
C393   C     0.78398   0.17833   0.00529   0.12311  Uiso   1.00
C394   C     0.79878   0.18604   0.00552   0.12311  Uiso   1.00
C395   C     0.82082   0.15868   0.02869   0.12311  Uiso   1.00
C396   C     0.80711   0.15721   0.03420   0.12311  Uiso   1.00
N397   N     0.76391   0.15677   0.02682   0.12311  Uiso   1.00
N398   N     0.76276   0.17838   0.23314   0.12311  Uiso   1.00
H399   H     0.78068   0.14389   0.06958   0.12311  Uiso   1.00
H400   H     0.77730   0.20757   0.19085   0.12311  Uiso   1.00
H401   H     0.82651   0.13898   0.04829   0.12311  Uiso   1.00
H402   H     0.80342   0.13652   0.05758   0.12311  Uiso   1.00
H403   H     0.83362   0.05718   0.11959   0.12311  Uiso   0.00
C404   C     0.84798   0.03174   0.08448   0.12311  Uiso   1.00
C405   C     0.84983   0.06671   0.15517   0.12311  Uiso   1.00
C406   C     0.84102   0.05333   0.11971   0.12311  Uiso   1.00
C407   C     0.82622   0.06104   0.11948   0.12311  Uiso   1.00
C408   C     0.80418   0.03368   0.09631   0.12311  Uiso   1.00
C409   C     0.81789   0.03221   0.09080   0.12311  Uiso   1.00
N410   N     0.86109   0.03177   0.09818   0.12311  Uiso   1.00
N411   N     0.86224   0.05338   0.14186   0.12311  Uiso   1.00
H412   H     0.84432   0.01889   0.05542   0.12311  Uiso   1.00
H413   H     0.84770   0.08257   0.18415   0.12311  Uiso   1.00
H414   H     0.79849   0.01398   0.07671   0.12311  Uiso   1.00
H415   H     0.82158   0.01152   0.06742   0.12311  Uiso   1.00
H416   H     0.95862   0.18218   0.11959   0.12311  Uiso   0.00
C417   C     0.97298   0.15674   0.08448   0.12311  Uiso   1.00
C418   C     0.97483   0.19171   0.15517   0.12311  Uiso   1.00
C419   C     0.96602   0.17833   0.11971   0.12311  Uiso   1.00
C420   C     0.95122   0.18604   0.11948   0.12311  Uiso   1.00
C421   C     0.92918   0.15868   0.09631   0.12311  Uiso   1.00
C422   C     0.94289   0.15721   0.09080   0.12311  Uiso   1.00
N423   N     0.98609   0.15677   0.09818   0.12311  Uiso   1.00
N424   N     0.98724   0.17838   0.14186   0.12311  Uiso   1.00
H425   H     0.96932   0.14389   0.05542   0.12311  Uiso   1.00
H426   H     0.97270   0.20757   0.18415   0.12311  Uiso   1.00
H427   H     0.92349   0.13898   0.07671   0.12311  Uiso   1.00
H428   H     0.94658   0.13652   0.06742   0.12311  Uiso   1.00
Fe429  Fe    0.75000   0.11461   0.06250   0.12311  Uiso   1.00
Fe430  Fe    0.87500   0.23961   0.06250   0.12311  Uiso   1.00
Fe431  Fe    0.75000   0.13539   0.18750   0.12311  Uiso   1.00
Fe432  Fe    0.87500   0.01039   0.18750   0.12311  Uiso   1.00
H433   H     0.08362   0.44282   0.24459   0.12311  Uiso   0.00
C434   C     0.09798   0.46826   0.20948   0.12311  Uiso   1.00
C435   C     0.09983   0.43329   0.03017   0.12311  Uiso   1.00
C436   C     0.09102   0.44667   0.24471   0.12311  Uiso   1.00
C437   C     0.07622   0.43896   0.24448   0.12311  Uiso   1.00
C438   C     0.05418   0.46632   0.22131   0.12311  Uiso   1.00
C439   C     0.06789   0.46779   0.21580   0.12311  Uiso   1.00
N440   N     0.11109   0.46823   0.22318   0.12311  Uiso   1.00
N441   N     0.11224   0.44662   0.01686   0.12311  Uiso   1.00
H442   H     0.09432   0.48111   0.18042   0.12311  Uiso   1.00
H443   H     0.09770   0.41743   0.05915   0.12311  Uiso   1.00
H444   H     0.04849   0.48602   0.20171   0.12311  Uiso   1.00
H445   H     0.07158   0.48848   0.19242   0.12311  Uiso   1.00
H446   H     0.20862   0.31782   0.24459   0.12311  Uiso   0.00
C447   C     0.22298   0.34326   0.20948   0.12311  Uiso   1.00
C448   C     0.22483   0.30829   0.03017   0.12311  Uiso   1.00
C449   C     0.21602   0.32167   0.24471   0.12311  Uiso   1.00
C450   C     0.20122   0.31396   0.24448   0.12311  Uiso   1.00
C451   C     0.17918   0.34132   0.22131   0.12311  Uiso   1.00
C452   C     0.19289   0.34279   0.21580   0.12311  Uiso   1.00
N453   N     0.23609   0.34323   0.22318   0.12311  Uiso   1.00
N454   N     0.23724   0.32162   0.01686   0.12311  Uiso   1.00
H455   H     0.21932   0.35611   0.18042   0.12311  Uiso   1.00
H456   H     0.22270   0.29243   0.05915   0.12311  Uiso   1.00
H457   H     0.17349   0.36102   0.20171   0.12311  Uiso   1.00
H458   H     0.19658   0.36348   0.19242   0.12311  Uiso   1.00
H459   H     0.16638   0.44282   0.13041   0.12311  Uiso   0.00
C460   C     0.15202   0.46826   0.16552   0.12311  Uiso   1.00
C461   C     0.15017   0.43329   0.09483   0.12311  Uiso   1.00
C462   C     0.15898   0.44667   0.13029   0.12311  Uiso   1.00
C463   C     0.17378   0.43896   0.13052   0.12311  Uiso   1.00
C464   C     0.19582   0.46632   0.15369   0.12311  Uiso   1.00
C465   C     0.18211   0.46779   0.15920   0.12311  Uiso   1.00
N466   N     0.13891   0.46823   0.15182   0.12311  Uiso   1.00
N467   N     0.13776   0.44662   0.10814   0.12311  Uiso   1.00
H468   H     0.15568   0.48111   0.19458   0.12311  Uiso   1.00
H469   H     0.15230   0.41743   0.06585   0.12311  Uiso   1.00
H470   H     0.20151   0.48602   0.17329   0.12311  Uiso   1.00
H471   H     0.17842   0.48848   0.18258   0.12311  Uiso   1.00
H472   H     0.04138   0.31782   0.13041   0.12311  Uiso   0.00
C473   C     0.02702   0.34326   0.16552   0.12311  Uiso   1.00
C474   C     0.02517   0.30829   0.09483   0.12311  Uiso   1.00
C475   C     0.03398   0.32167   0.13029   0.12311  Uiso   1.00
C476   C     0.04878   0.31396   0.13052   0.12311  Uiso   1.00
C477   C     0.07082   0.34132   0.15369   0.12311  Uiso   1.00
C478   C     0.05711   0.34279   0.15920   0.12311  Uiso   1.00
N479   N     0.01391   0.34323   0.15182   0.12311  Uiso   1.00
N480   N     0.01276   0.32162   0.10814   0.12311  Uiso   1.00
H481   H     0.03068   0.35611   0.19458   0.12311  Uiso   1.00
H482   H     0.02730   0.29243   0.06585   0.12311  Uiso   1.00
H483   H     0.07651   0.36102   0.17329   0.12311  Uiso   1.00
H484   H     0.05342   0.36348   0.18258   0.12311  Uiso   1.00
H485   H     0.16638   0.30718   0.00541   0.12311  Uiso   0.00
C486   C     0.15202   0.28174   0.04052   0.12311  Uiso   1.00
C487   C     0.15017   0.31671   0.21983   0.12311  Uiso   1.00
C488   C     0.15898   0.30333   0.00529   0.12311  Uiso   1.00
C489   C     0.17378   0.31104   0.00552   0.12311  Uiso   1.00
C490   C     0.19582   0.28368   0.02869   0.12311  Uiso   1.00
C491   C     0.18211   0.28221   0.03420   0.12311  Uiso   1.00
N492   N     0.13891   0.28177   0.02682   0.12311  Uiso   1.00
N493   N     0.13776   0.30338   0.23314   0.12311  Uiso   1.00
H494   H     0.15568   0.26889   0.06958   0.12311  Uiso   1.00
H495   H     0.15230   0.33257   0.19085   0.12311  Uiso   1.00
H496   H     0.20151   0.26398   0.04829   0.12311  Uiso   1.00
H497   H     0.17842   0.26152   0.05758   0.12311  Uiso   1.00
H498   H     0.04138   0.43218   0.00541   0.12311  Uiso   0.00
C499   C     0.02702   0.40674   0.04052   0.12311  Uiso   1.00
C500   C     0.02517   0.44171   0.21983   0.12311  Uiso   1.00
C501   C     0.03398   0.42833   0.00529   0.12311  Uiso   1.00
C502   C     0.04878   0.43604   0.00552   0.12311  Uiso   1.00
C503   C     0.07082   0.40868   0.02869   0.12311  Uiso   1.00
C504   C     0.05711   0.40721   0.03420   0.12311  Uiso   1.00
N505   N     0.01391   0.40677   0.02682   0.12311  Uiso   1.00
N506   N     0.01276   0.42838   0.23314   0.12311  Uiso   1.00
H507   H     0.03068   0.39389   0.06958   0.12311  Uiso   1.00
H508   H     0.02730   0.45757   0.19085   0.12311  Uiso   1.00
H509   H     0.07651   0.38898   0.04829   0.12311  Uiso   1.00
H510   H     0.05342   0.38652   0.05758   0.12311  Uiso   1.00
H511   H     0.08362   0.30718   0.11959   0.12311  Uiso   0.00
C512   C     0.09798   0.28174   0.08448   0.12311  Uiso   1.00
C513   C     0.09983   0.31671   0.15517   0.12311  Uiso   1.00
C514   C     0.09102   0.30333   0.11971   0.12311  Uiso   1.00
C515   C     0.07622   0.31104   0.11948   0.12311  Uiso   1.00
C516   C     0.05418   0.28368   0.09631   0.12311  Uiso   1.00
C517   C     0.06789   0.28221   0.09080   0.12311  Uiso   1.00
N518   N     0.11109   0.28177   0.09818   0.12311  Uiso   1.00
N519   N     0.11224   0.30338   0.14186   0.12311  Uiso   1.00
H520   H     0.09432   0.26889   0.05542   0.12311  Uiso   1.00
H521   H     0.09770   0.33257   0.18415   0.12311  Uiso   1.00
H522   H     0.04849   0.26398   0.07671   0.12311  Uiso   1.00
H523   H     0.07158   0.26152   0.06742   0.12311  Uiso   1.00
H524   H     0.20862   0.43218   0.11959   0.12311  Uiso   0.00
C525   C     0.22298   0.40674   0.08448   0.12311  Uiso   1.00
C526   C     0.22483   0.44171   0.15517   0.12311  Uiso   1.00
C527   C     0.21602   0.42833   0.11971   0.12311  Uiso   1.00
C528   C     0.20122   0.43604   0.11948   0.12311  Uiso   1.00
C529   C     0.17918   0.40868   0.09631   0.12311  Uiso   1.00
C530   C     0.19289   0.40721   0.09080   0.12311  Uiso   1.00
N531   N     0.23609   0.40677   0.09818   0.12311  Uiso   1.00
N532   N     0.23724   0.42838   0.14186   0.12311  Uiso   1.00
H533   H     0.21932   0.39389   0.05542   0.12311  Uiso   1.00
H534   H     0.22270   0.45757   0.18415   0.12311  Uiso   1.00
H535   H     0.17349   0.38898   0.07671   0.12311  Uiso   1.00
H536   H     0.19658   0.38652   0.06742   0.12311  Uiso   1.00
Fe537  Fe    0.00000   0.36461   0.06250   0.12311  Uiso   1.00
Fe538  Fe    0.12500   0.48961   0.06250   0.12311  Uiso   1.00
Fe539  Fe    0.00000   0.38539   0.18750   0.12311  Uiso   1.00
Fe540  Fe    0.12500   0.26039   0.18750   0.12311  Uiso   1.00
H541   H     0.33362   0.44282   0.24459   0.12311  Uiso   0.00
C542   C     0.34798   0.46826   0.20948   0.12311  Uiso   1.00
C543   C     0.34983   0.43329   0.03017   0.12311  Uiso   1.00
C544   C     0.34102   0.44667   0.24471   0.12311  Uiso   1.00
C545   C     0.32622   0.43896   0.24448   0.12311  Uiso   1.00
C546   C     0.30418   0.46632   0.22131   0.12311  Uiso   1.00
C547   C     0.31789   0.46779   0.21580   0.12311  Uiso   1.00
N548   N     0.36109   0.46823   0.22318   0.12311  Uiso   1.00
N549   N     0.36224   0.44662   0.01686   0.12311  Uiso   1.00
H550   H     0.34432   0.48111   0.18042   0.12311  Uiso   1.00
H551   H     0.34770   0.41743   0.05915   0.12311  Uiso   1.00
H552   H     0.29849   0.48602   0.20171   0.12311  Uiso   1.00
H553   H     0.32158   0.48848   0.19242   0.12311  Uiso   1.00
H554   H     0.45862   0.31782   0.24459   0.12311  Uiso   0.00
C555   C     0.47298   0.34326   0.20948   0.12311  Uiso   1.00
C556   C     0.47483   0.30829   0.03017   0.12311  Uiso   1.00
C557   C     0.46602   0.32167   0.24471   0.12311  Uiso   1.00
C558   C     0.45122   0.31396   0.24448   0.12311  Uiso   1.00
C559   C     0.42918   0.34132   0.22131   0.12311  Uiso   1.00
C560   C     0.44289   0.34279   0.21580   0.12311  Uiso   1.00
N561   N     0.48609   0.34323   0.22318   0.12311  Uiso   1.00
N562   N     0.48724   0.32162   0.01686   0.12311  Uiso   1.00
H563   H     0.46932   0.35611   0.18042   0.12311  Uiso   1.00
H564   H     0.47270   0.29243   0.05915   0.12311  Uiso   1.00
H565   H     0.42349   0.36102   0.20171   0.12311  Uiso   1.00
H566   H     0.44658   0.36348   0.19242   0.12311  Uiso   1.00
H567   H     0.41638   0.44282   0.13041   0.12311  Uiso   0.00
C568   C     0.40202   0.46826   0.16552   0.12311  Uiso   1.00
C569   C     0.40017   0.43329   0.09483   0.12311  Uiso   1.00
C570   C     0.40898   0.44667   0.13029   0.12311  Uiso   1.00
C571   C     0.42378   0.43896   0.13052   0.12311  Uiso   1.00
C572   C     0.44582   0.46632   0.15369   0.12311  Uiso   1.00
C573   C     0.43211   0.46779   0.15920   0.12311  Uiso   1.00
N574   N     0.38891   0.46823   0.15182   0.12311  Uiso   1.00
N575   N     0.38776   0.44662   0.10814   0.12311  Uiso   1.00
H576   H     0.40568   0.48111   0.19458   0.12311  Uiso   1.00
H577   H     0.40230   0.41743   0.06585   0.12311  Uiso   1.00
H578   H     0.45151   0.48602   0.17329   0.12311  Uiso   1.00
H579   H     0.42842   0.48848   0.18258   0.12311  Uiso   1.00
H580   H     0.29138   0.31782   0.13041   0.12311  Uiso   0.00
C581   C     0.27702   0.34326   0.16552   0.12311  Uiso   1.00
C582   C     0.27517   0.30829   0.09483   0.12311  Uiso   1.00
C583   C     0.28398   0.32167   0.13029   0.12311  Uiso   1.00
C584   C     0.29878   0.31396   0.13052   0.12311  Uiso   1.00
C585   C     0.32082   0.34132   0.15369   0.12311  Uiso   1.00
C586   C     0.30711   0.34279   0.15920   0.12311  Uiso   1.00
N587   N     0.26391   0.34323   0.15182   0.12311  Uiso   1.00
N588   N     0.26276   0.32162   0.10814   0.12311  Uiso   1.00
H589   H     0.28068   0.35611   0.19458   0.12311  Uiso   1.00
H590   H     0.27730   0.29243   0.06585   0.12311  Uiso   1.00
H591   H     0.32651   0.36102   0.17329   0.12311  Uiso   1.00
H592   H     0.30342   0.36348   0.18258   0.12311  Uiso   1.00
H593   H     0.41638   0.30718   0.00541   0.12311  Uiso   0.00
C594   C     0.40202   0.28174   0.04052   0.12311  Uiso   1.00
C595   C     0.40017   0.31671   0.21983   0.12311  Uiso   1.00
C596   C     0.40898   0.30333   0.00529   0.12311  Uiso   1.00
C597   C     0.42378   0.31104   0.00552   0.12311  Uiso   1.00
C598   C     0.44582   0.28368   0.02869   0.12311  Uiso   1.00
C599   C     0.43211   0.28221   0.03420   0.12311  Uiso   1.00
N600   N     0.38891   0.28177   0.02682   0.12311  Uiso   1.00
N601   N     0.38776   0.30338   0.23314   0.12311  Uiso   1.00
H602   H     0.40568   0.26889   0.06958   0.12311  Uiso   1.00
H603   H     0.40230   0.33257   0.19085   0.12311  Uiso   1.00
H604   H     0.45151   0.26398   0.04829   0.12311  Uiso   1.00
H605   H     0.42842   0.26152   0.05758   0.12311  Uiso   1.00
H606   H     0.29138   0.43218   0.00541   0.12311  Uiso   0.00
C607   C     0.27702   0.40674   0.04052   0.12311  Uiso   1.00
C608   C     0.27517   0.44171   0.21983   0.12311  Uiso   1.00
C609   C     0.28398   0.42833   0.00529   0.12311  Uiso   1.00
C610   C     0.29878   0.43604   0.00552   0.12311  Uiso   1.00
C611   C     0.32082   0.40868   0.02869   0.12311  Uiso   1.00
C612   C     0.30711   0.40721   0.03420   0.12311  Uiso   1.00
N613   N     0.26391   0.40677   0.02682   0.12311  Uiso   1.00
N614   N     0.26276   0.42838   0.23314   0.12311  Uiso   1.00
H615   H     0.28068   0.39389   0.06958   0.12311  Uiso   1.00
H616   H     0.27730   0.45757   0.19085   0.12311  Uiso   1.00
H617   H     0.32651   0.38898   0.04829   0.12311  Uiso   1.00
H618   H     0.30342   0.38652   0.05758   0.12311  Uiso   1.00
H619   H     0.33362   0.30718   0.11959   0.12311  Uiso   0.00
C620   C     0.34798   0.28174   0.08448   0.12311  Uiso   1.00
C621   C     0.34983   0.31671   0.15517   0.12311  Uiso   1.00
C622   C     0.34102   0.30333   0.11971   0.12311  Uiso   1.00
C623   C     0.32622   0.31104   0.11948   0.12311  Uiso   1.00
C624   C     0.30418   0.28368   0.09631   0.12311  Uiso   1.00
C625   C     0.31789   0.28221   0.09080   0.12311  Uiso   1.00
N626   N     0.36109   0.28177   0.09818   0.12311  Uiso   1.00
N627   N     0.36224   0.30338   0.14186   0.12311  Uiso   1.00
H628   H     0.34432   0.26889   0.05542   0.12311  Uiso   1.00
H629   H     0.34770   0.33257   0.18415   0.12311  Uiso   1.00
H630   H     0.29849   0.26398   0.07671   0.12311  Uiso   1.00
H631   H     0.32158   0.26152   0.06742   0.12311  Uiso   1.00
H632   H     0.45862   0.43218   0.11959   0.12311  Uiso   0.00
C633   C     0.47298   0.40674   0.08448   0.12311  Uiso   1.00
C634   C     0.47483   0.44171   0.15517   0.12311  Uiso   1.00
C635   C     0.46602   0.42833   0.11971   0.12311  Uiso   1.00
C636   C     0.45122   0.43604   0.11948   0.12311  Uiso   1.00
C637   C     0.42918   0.40868   0.09631   0.12311  Uiso   1.00
C638   C     0.44289   0.40721   0.09080   0.12311  Uiso   1.00
N639   N     0.48609   0.40677   0.09818   0.12311  Uiso   1.00
N640   N     0.48724   0.42838   0.14186   0.12311  Uiso   1.00
H641   H     0.46932   0.39389   0.05542   0.12311  Uiso   1.00
H642   H     0.47270   0.45757   0.18415   0.12311  Uiso   1.00
H643   H     0.42349   0.38898   0.07671   0.12311  Uiso   1.00
H644   H     0.44658   0.38652   0.06742   0.12311  Uiso   1.00
Fe645  Fe    0.25000   0.36461   0.06250   0.12311  Uiso   1.00
Fe646  Fe    0.37500   0.48961   0.06250   0.12311  Uiso   1.00
Fe647  Fe    0.25000   0.38539   0.18750   0.12311  Uiso   1.00
Fe648  Fe    0.37500   0.26039   0.18750   0.12311  Uiso   1.00
H649   H     0.58362   0.44282   0.24459   0.12311  Uiso   0.00
C650   C     0.59798   0.46826   0.20948   0.12311  Uiso   1.00
C651   C     0.59983   0.43329   0.03017   0.12311  Uiso   1.00
C652   C     0.59102   0.44667   0.24471   0.12311  Uiso   1.00
C653   C     0.57622   0.43896   0.24448   0.12311  Uiso   1.00
C654   C     0.55418   0.46632   0.22131   0.12311  Uiso   1.00
C655   C     0.56789   0.46779   0.21580   0.12311  Uiso   1.00
N656   N     0.61109   0.46823   0.22318   0.12311  Uiso   1.00
N657   N     0.61224   0.44662   0.01686   0.12311  Uiso   1.00
H658   H     0.59432   0.48111   0.18042   0.12311  Uiso   1.00
H659   H     0.59770   0.41743   0.05915   0.12311  Uiso   1.00
H660   H     0.54849   0.48602   0.20171   0.12311  Uiso   1.00
H661   H     0.57158   0.48848   0.19242   0.12311  Uiso   1.00
H662   H     0.70862   0.31782   0.24459   0.12311  Uiso   0.00
C663   C     0.72298   0.34326   0.20948   0.12311  Uiso   1.00
C664   C     0.72483   0.30829   0.03017   0.12311  Uiso   1.00
C665   C     0.71602   0.32167   0.24471   0.12311  Uiso   1.00
C666   C     0.70122   0.31396   0.24448   0.12311  Uiso   1.00
C667   C     0.67918   0.34132   0.22131   0.12311  Uiso   1.00
C668   C     0.69289   0.34279   0.21580   0.12311  Uiso   1.00
N669   N     0.73609   0.34323   0.22318   0.12311  Uiso   1.00
N670   N     0.73724   0.32162   0.01686   0.12311  Uiso   1.00
H671   H     0.71932   0.35611   0.18042   0.12311  Uiso   1.00
H672   H     0.72270   0.29243   0.05915   0.12311  Uiso   1.00
H673   H     0.67349   0.36102   0.20171   0.12311  Uiso   1.00
H674   H     0.69658   0.36348   0.19242   0.12311  Uiso   1.00
H675   H     0.66638   0.44282   0.13041   0.12311  Uiso   0.00
C676   C     0.65202   0.46826   0.16552   0.12311  Uiso   1.00
C677   C     0.65017   0.43329   0.09483   0.12311  Uiso   1.00
C678   C     0.65898   0.44667   0.13029   0.12311  Uiso   1.00
C679   C     0.67378   0.43896   0.13052   0.12311  Uiso   1.00
C680   C     0.69582   0.46632   0.15369   0.12311  Uiso   1.00
C681   C     0.68211   0.46779   0.15920   0.12311  Uiso   1.00
N682   N     0.63891   0.46823   0.15182   0.12311  Uiso   1.00
N683   N     0.63776   0.44662   0.10814   0.12311  Uiso   1.00
H684   H     0.65568   0.48111   0.19458   0.12311  Uiso   1.00
H685   H     0.65230   0.41743   0.06585   0.12311  Uiso   1.00
H686   H     0.70151   0.48602   0.17329   0.12311  Uiso   1.00
H687   H     0.67842   0.48848   0.18258   0.12311  Uiso   1.00
H688   H     0.54138   0.31782   0.13041   0.12311  Uiso   0.00
C689   C     0.52702   0.34326   0.16552   0.12311  Uiso   1.00
C690   C     0.52517   0.30829   0.09483   0.12311  Uiso   1.00
C691   C     0.53398   0.32167   0.13029   0.12311  Uiso   1.00
C692   C     0.54878   0.31396   0.13052   0.12311  Uiso   1.00
C693   C     0.57082   0.34132   0.15369   0.12311  Uiso   1.00
C694   C     0.55711   0.34279   0.15920   0.12311  Uiso   1.00
N695   N     0.51391   0.34323   0.15182   0.12311  Uiso   1.00
N696   N     0.51276   0.32162   0.10814   0.12311  Uiso   1.00
H697   H     0.53068   0.35611   0.19458   0.12311  Uiso   1.00
H698   H     0.52730   0.29243   0.06585   0.12311  Uiso   1.00
H699   H     0.57651   0.36102   0.17329   0.12311  Uiso   1.00
H700   H     0.55342   0.36348   0.18258   0.12311  Uiso   1.00
H701   H     0.66638   0.30718   0.00541   0.12311  Uiso   0.00
C702   C     0.65202   0.28174   0.04052   0.12311  Uiso   1.00
C703   C     0.65017   0.31671   0.21983   0.12311  Uiso   1.00
C704   C     0.65898   0.30333   0.00529   0.12311  Uiso   1.00
C705   C     0.67378   0.31104   0.00552   0.12311  Uiso   1.00
C706   C     0.69582   0.28368   0.02869   0.12311  Uiso   1.00
C707   C     0.68211   0.28221   0.03420   0.12311  Uiso   1.00
N708   N     0.63891   0.28177   0.02682   0.12311  Uiso   1.00
N709   N     0.63776   0.30338   0.23314   0.12311  Uiso   1.00
H710   H     0.65568   0.26889   0.06958   0.12311  Uiso   1.00
H711   H     0.65230   0.33257   0.19085   0.12311  Uiso   1.00
H712   H     0.70151   0.26398   0.04829   0.12311  Uiso   1.00
H713   H     0.67842   0.26152   0.05758   0.12311  Uiso   1.00
H714   H     0.54138   0.43218   0.00541   0.12311  Uiso   0.00
C715   C     0.52702   0.40674   0.04052   0.12311  Uiso   1.00
C716   C     0.52517   0.44171   0.21983   0.12311  Uiso   1.00
C717   C     0.53398   0.42833   0.00529   0.12311  Uiso   1.00
C718   C     0.54878   0.43604   0.00552   0.12311  Uiso   1.00
C719   C     0.57082   0.40868   0.02869   0.12311  Uiso   1.00
C720   C     0.55711   0.40721   0.03420   0.12311  Uiso   1.00
N721   N     0.51391   0.40677   0.02682   0.12311  Uiso   1.00
N722   N     0.51276   0.42838   0.23314   0.12311  Uiso   1.00
H723   H     0.53068   0.39389   0.06958   0.12311  Uiso   1.00
H724   H     0.52730   0.45757   0.19085   0.12311  Uiso   1.00
H725   H     0.57651   0.38898   0.04829   0.12311  Uiso   1.00
H726   H     0.55342   0.38652   0.05758   0.12311  Uiso   1.00
H727   H     0.58362   0.30718   0.11959   0.12311  Uiso   0.00
C728   C     0.59798   0.28174   0.08448   0.12311  Uiso   1.00
C729   C     0.59983   0.31671   0.15517   0.12311  Uiso   1.00
C730   C     0.59102   0.30333   0.11971   0.12311  Uiso   1.00
C731   C     0.57622   0.31104   0.11948   0.12311  Uiso   1.00
C732   C     0.55418   0.28368   0.09631   0.12311  Uiso   1.00
C733   C     0.56789   0.28221   0.09080   0.12311  Uiso   1.00
N734   N     0.61109   0.28177   0.09818   0.12311  Uiso   1.00
N735   N     0.61224   0.30338   0.14186   0.12311  Uiso   1.00
H736   H     0.59432   0.26889   0.05542   0.12311  Uiso   1.00
H737   H     0.59770   0.33257   0.18415   0.12311  Uiso   1.00
H738   H     0.54849   0.26398   0.07671   0.12311  Uiso   1.00
H739   H     0.57158   0.26152   0.06742   0.12311  Uiso   1.00
H740   H     0.70862   0.43218   0.11959   0.12311  Uiso   0.00
C741   C     0.72298   0.40674   0.08448   0.12311  Uiso   1.00
C742   C     0.72483   0.44171   0.15517   0.12311  Uiso   1.00
C743   C     0.71602   0.42833   0.11971   0.12311  Uiso   1.00
C744   C     0.70122   0.43604   0.11948   0.12311  Uiso   1.00
C745   C     0.67918   0.40868   0.09631   0.12311  Uiso   1.00
C746   C     0.69289   0.40721   0.09080   0.12311  Uiso   1.00
N747   N     0.73609   0.40677   0.09818   0.12311  Uiso   1.00
N748   N     0.73724   0.42838   0.14186   0.12311  Uiso   1.00
H749   H     0.71932   0.39389   0.05542   0.12311  Uiso   1.00
H750   H     0.72270   0.45757   0.18415   0.12311  Uiso   1.00
H751   H     0.67349   0.38898   0.07671   0.12311  Uiso   1.00
H752   H     0.69658   0.38652   0.06742   0.12311  Uiso   1.00
Fe753  Fe    0.50000   0.36461   0.06250   0.12311  Uiso   1.00
Fe754  Fe    0.62500   0.48961   0.06250   0.12311  Uiso   1.00
Fe755  Fe    0.50000   0.38539   0.18750   0.12311  Uiso   1.00
Fe756  Fe    0.62500   0.26039   0.18750   0.12311  Uiso   1.00
H757   H     0.83362   0.44282   0.24459   0.12311  Uiso   0.00
C758   C     0.84798   0.46826   0.20948   0.12311  Uiso   1.00
C759   C     0.84983   0.43329   0.03017   0.12311  Uiso   1.00
C760   C     0.84102   0.44667   0.24471   0.12311  Uiso   1.00
C761   C     0.82622   0.43896   0.24448   0.12311  Uiso   1.00
C762   C     0.80418   0.46632   0.22131   0.12311  Uiso   1.00
C763   C     0.81789   0.46779   0.21580   0.12311  Uiso   1.00
N764   N     0.86109   0.46823   0.22318   0.12311  Uiso   1.00
N765   N     0.86224   0.44662   0.01686   0.12311  Uiso   1.00
H766   H     0.84432   0.48111   0.18042   0.12311  Uiso   1.00
H767   H     0.84770   0.41743   0.05915   0.12311  Uiso   1.00
H768   H     0.79849   0.48602   0.20171   0.12311  Uiso   1.00
H769   H     0.82158   0.48848   0.19242   0.12311  Uiso   1.00
H770   H     0.95862   0.31782   0.24459   0.12311  Uiso   0.00
C771   C     0.97298   0.34326   0.20948   0.12311  Uiso   1.00
C772   C     0.97483   0.30829   0.03017   0.12311  Uiso   1.00
C773   C     0.96602   0.32167   0.24471   0.12311  Uiso   1.00
C774   C     0.95122   0.31396   0.24448   0.12311  Uiso   1.00
C775   C     0.92918   0.34132   0.22131   0.12311  Uiso   1.00
C776   C     0.94289   0.34279   0.21580   0.12311  Uiso   1.00
N777   N     0.98609   0.34323   0.22318   0.12311  Uiso   1.00
N778   N     0.98724   0.32162   0.01686   0.12311  Uiso   1.00
H779   H     0.96932   0.35611   0.18042   0.12311  Uiso   1.00
H780   H     0.97270   0.29243   0.05915   0.12311  Uiso   1.00
H781   H     0.92349   0.36102   0.20171   0.12311  Uiso   1.00
H782   H     0.94658   0.36348   0.19242   0.12311  Uiso   1.00
H783   H     0.91638   0.44282   0.13041   0.12311  Uiso   0.00
C784   C     0.90202   0.46826   0.16552   0.12311  Uiso   1.00
C785   C     0.90017   0.43329   0.09483   0.12311  Uiso   1.00
C786   C     0.90898   0.44667   0.13029   0.12311  Uiso   1.00
C787   C     0.92378   0.43896   0.13052   0.12311  Uiso   1.00
C788   C     0.94582   0.46632   0.15369   0.12311  Uiso   1.00
C789   C     0.93211   0.46779   0.15920   0.12311  Uiso   1.00
N790   N     0.88891   0.46823   0.15182   0.12311  Uiso   1.00
N791   N     0.88776   0.44662   0.10814   0.12311  Uiso   1.00
H792   H     0.90568   0.48111   0.19458   0.12311  Uiso   1.00
H793   H     0.90230   0.41743   0.06585   0.12311  Uiso   1.00
H794   H     0.95151   0.48602   0.17329   0.12311  Uiso   1.00
H795   H     0.92842   0.48848   0.18258   0.12311  Uiso   1.00
H796   H     0.79138   0.31782   0.13041   0.12311  Uiso   0.00
C797   C     0.77702   0.34326   0.16552   0.12311  Uiso   1.00
C798   C     0.77517   0.30829   0.09483   0.12311  Uiso   1.00
C799   C     0.78398   0.32167   0.13029   0.12311  Uiso   1.00
C800   C     0.79878   0.31396   0.13052   0.12311  Uiso   1.00
C801   C     0.82082   0.34132   0.15369   0.12311  Uiso   1.00
C802   C     0.80711   0.34279   0.15920   0.12311  Uiso   1.00
N803   N     0.76391   0.34323   0.15182   0.12311  Uiso   1.00
N804   N     0.76276   0.32162   0.10814   0.12311  Uiso   1.00
H805   H     0.78068   0.35611   0.19458   0.12311  Uiso   1.00
H806   H     0.77730   0.29243   0.06585   0.12311  Uiso   1.00
H807   H     0.82651   0.36102   0.17329   0.12311  Uiso   1.00
H808   H     0.80342   0.36348   0.18258   0.12311  Uiso   1.00
H809   H     0.91638   0.30718   0.00541   0.12311  Uiso   0.00
C810   C     0.90202   0.28174   0.04052   0.12311  Uiso   1.00
C811   C     0.90017   0.31671   0.21983   0.12311  Uiso   1.00
C812   C     0.90898   0.30333   0.00529   0.12311  Uiso   1.00
C813   C     0.92378   0.31104   0.00552   0.12311  Uiso   1.00
C814   C     0.94582   0.28368   0.02869   0.12311  Uiso   1.00
C815   C     0.93211   0.28221   0.03420   0.12311  Uiso   1.00
N816   N     0.88891   0.28177   0.02682   0.12311  Uiso   1.00
N817   N     0.88776   0.30338   0.23314   0.12311  Uiso   1.00
H818   H     0.90568   0.26889   0.06958   0.12311  Uiso   1.00
H819   H     0.90230   0.33257   0.19085   0.12311  Uiso   1.00
H820   H     0.95151   0.26398   0.04829   0.12311  Uiso   1.00
H821   H     0.92842   0.26152   0.05758   0.12311  Uiso   1.00
H822   H     0.79138   0.43218   0.00541   0.12311  Uiso   0.00
C823   C     0.77702   0.40674   0.04052   0.12311  Uiso   1.00
C824   C     0.77517   0.44171   0.21983   0.12311  Uiso   1.00
C825   C     0.78398   0.42833   0.00529   0.12311  Uiso   1.00
C826   C     0.79878   0.43604   0.00552   0.12311  Uiso   1.00
C827   C     0.82082   0.40868   0.02869   0.12311  Uiso   1.00
C828   C     0.80711   0.40721   0.03420   0.12311  Uiso   1.00
N829   N     0.76391   0.40677   0.02682   0.12311  Uiso   1.00
N830   N     0.76276   0.42838   0.23314   0.12311  Uiso   1.00
H831   H     0.78068   0.39389   0.06958   0.12311  Uiso   1.00
H832   H     0.77730   0.45757   0.19085   0.12311  Uiso   1.00
H833   H     0.82651   0.38898   0.04829   0.12311  Uiso   1.00
H834   H     0.80342   0.38652   0.05758   0.12311  Uiso   1.00
H835   H     0.83362   0.30718   0.11959   0.12311  Uiso   0.00
C836   C     0.84798   0.28174   0.08448   0.12311  Uiso   1.00
C837   C     0.84983   0.31671   0.15517   0.12311  Uiso   1.00
C838   C     0.84102   0.30333   0.11971   0.12311  Uiso   1.00
C839   C     0.82622   0.31104   0.11948   0.12311  Uiso   1.00
C840   C     0.80418   0.28368   0.09631   0.12311  Uiso   1.00
C841   C     0.81789   0.28221   0.09080   0.12311  Uiso   1.00
N842   N     0.86109   0.28177   0.09818   0.12311  Uiso   1.00
N843   N     0.86224   0.30338   0.14186   0.12311  Uiso   1.00
H844   H     0.84432   0.26889   0.05542   0.12311  Uiso   1.00
H845   H     0.84770   0.33257   0.18415   0.12311  Uiso   1.00
H846   H     0.79849   0.26398   0.07671   0.12311  Uiso   1.00
H847   H     0.82158   0.26152   0.06742   0.12311  Uiso   1.00
H848   H     0.95862   0.43218   0.11959   0.12311  Uiso   0.00
C849   C     0.97298   0.40674   0.08448   0.12311  Uiso   1.00
C850   C     0.97483   0.44171   0.15517   0.12311  Uiso   1.00
C851   C     0.96602   0.42833   0.11971   0.12311  Uiso   1.00
C852   C     0.95122   0.43604   0.11948   0.12311  Uiso   1.00
C853   C     0.92918   0.40868   0.09631   0.12311  Uiso   1.00
C854   C     0.94289   0.40721   0.09080   0.12311  Uiso   1.00
N855   N     0.98609   0.40677   0.09818   0.12311  Uiso   1.00
N856   N     0.98724   0.42838   0.14186   0.12311  Uiso   1.00
H857   H     0.96932   0.39389   0.05542   0.12311  Uiso   1.00
H858   H     0.97270   0.45757   0.18415   0.12311  Uiso   1.00
H859   H     0.92349   0.38898   0.07671   0.12311  Uiso   1.00
H860   H     0.94658   0.38652   0.06742   0.12311  Uiso   1.00
Fe861  Fe    0.75000   0.36461   0.06250   0.12311  Uiso   1.00
Fe862  Fe    0.87500   0.48961   0.06250   0.12311  Uiso   1.00
Fe863  Fe    0.75000   0.38539   0.18750   0.12311  Uiso   1.00
Fe864  Fe    0.87500   0.26039   0.18750   0.12311  Uiso   1.00
H865   H     0.08362   0.69282   0.24459   0.12311  Uiso   0.00
C866   C     0.09798   0.71826   0.20948   0.12311  Uiso   1.00
C867   C     0.09983   0.68329   0.03017   0.12311  Uiso   1.00
C868   C     0.09102   0.69667   0.24471   0.12311  Uiso   1.00
C869   C     0.07622   0.68896   0.24448   0.12311  Uiso   1.00
C870   C     0.05418   0.71632   0.22131   0.12311  Uiso   1.00
C871   C     0.06789   0.71779   0.21580   0.12311  Uiso   1.00
N872   N     0.11109   0.71823   0.22318   0.12311  Uiso   1.00
N873   N     0.11224   0.69662   0.01686   0.12311  Uiso   1.00
H874   H     0.09432   0.73111   0.18042   0.12311  Uiso   1.00
H875   H     0.09770   0.66743   0.05915   0.12311  Uiso   1.00
H876   H     0.04849   0.73602   0.20171   0.12311  Uiso   1.00
H877   H     0.07158   0.73848   0.19242   0.12311  Uiso   1.00
H878   H     0.20862   0.56782   0.24459   0.12311  Uiso   0.00
C879   C     0.22298   0.59326   0.20948   0.12311  Uiso   1.00
C880   C     0.22483   0.55829   0.03017   0.12311  Uiso   1.00
C881   C     0.21602   0.57167   0.24471   0.12311  Uiso   1.00
C882   C     0.20122   0.56396   0.24448   0.12311  Uiso   1.00
C883   C     0.17918   0.59132   0.22131   0.12311  Uiso   1.00
C884   C     0.19289   0.59279   0.21580   0.12311  Uiso   1.00
N885   N     0.23609   0.59323   0.22318   0.12311  Uiso   1.00
N886   N     0.23724   0.57162   0.01686   0.12311  Uiso   1.00
H887   H     0.21932   0.60611   0.18042   0.12311  Uiso   1.00
H888   H     0.22270   0.54243   0.05915   0.12311  Uiso   1.00
H889   H     0.17349   0.61102   0.20171   0.12311  Uiso   1.00
H890   H     0.19658   0.61348   0.19242   0.12311  Uiso   1.00
H891   H     0.16638   0.69282   0.13041   0.12311  Uiso   0.00
C892   C     0.15202   0.71826   0.16552   0.12311  Uiso   1.00
C893   C     0.15017   0.68329   0.09483   0.12311  Uiso   1.00
C894   C     0.15898   0.69667   0.13029   0.12311  Uiso   1.00
C895   C     0.17378   0.68896   0.13052   0.12311  Uiso   1.00
C896   C     0.19582   0.71632   0.15369   0.12311  Uiso   1.00
C897   C     0.18211   0.71779   0.15920   0.12311  Uiso   1.00
N898   N     0.13891   0.71823   0.15182   0.12311  Uiso   1.00
N899   N     0.13776   0.69662   0.10814   0.12311  Uiso   1.00
H900   H     0.15568   0.73111   0.19458   0.12311  Uiso   1.00
H901   H     0.15230   0.66743   0.06585   0.12311  Uiso   1.00
H902   H     0.20151   0.73602   0.17329   0.12311  Uiso   1.00
H903   H     0.17842   0.73848   0.18258   0.12311  Uiso   1.00
H904   H     0.04138   0.56782   0.13041   0.12311  Uiso   0.00
C905   C     0.02702   0.59326   0.16552   0.12311  Uiso   1.00
C906   C     0.02517   0.55829   0.09483   0.12311  Uiso   1.00
C907   C     0.03398   0.57167   0.13029   0.12311  Uiso   1.00
C908   C     0.04878   0.56396   0.13052   0.12311  Uiso   1.00
C909   C     0.07082   0.59132   0.15369   0.12311  Uiso   1.00
C910   C     0.05711   0.59279   0.15920   0.12311  Uiso   1.00
N911   N     0.01391   0.59323   0.15182   0.12311  Uiso   1.00
N912   N     0.01276   0.57162   0.10814   0.12311  Uiso   1.00
H913   H     0.03068   0.60611   0.19458   0.12311  Uiso   1.00
H914   H     0.02730   0.54243   0.06585   0.12311  Uiso   1.00
H915   H     0.07651   0.61102   0.17329   0.12311  Uiso   1.00
H916   H     0.05342   0.61348   0.18258   0.12311  Uiso   1.00
H917   H     0.16638   0.55718   0.00541   0.12311  Uiso   0.00
C918   C     0.15202   0.53174   0.04052   0.12311  Uiso   1.00
C919   C     0.15017   0.56671   0.21983   0.12311  Uiso   1.00
C920   C     0.15898   0.55333   0.00529   0.12311  Uiso   1.00
C921   C     0.17378   0.56104   0.00552   0.12311  Uiso   1.00
C922   C     0.19582   0.53368   0.02869   0.12311  Uiso   1.00
C923   C     0.18211   0.53221   0.03420   0.12311  Uiso   1.00
N924   N     0.13891   0.53177   0.02682   0.12311  Uiso   1.00
N925   N     0.13776   0.55338   0.23314   0.12311  Uiso   1.00
H926   H     0.15568   0.51889   0.06958   0.12311  Uiso   1.00
H927   H     0.15230   0.58257   0.19085   0.12311  Uiso   1.00
H928   H     0.20151   0.51398   0.04829   0.12311  Uiso   1.00
H929   H     0.17842   0.51152   0.05758   0.12311  Uiso   1.00
H930   H     0.04138   0.68218   0.00541   0.12311  Uiso   0.00
C931   C     0.02702   0.65674   0.04052   0.12311  Uiso   1.00
C932   C     0.02517   0.69171   0.21983   0.12311  Uiso   1.00
C933   C     0.03398   0.67833   0.00529   0.12311  Uiso   1.00
C934   C     0.04878   0.68604   0.00552   0.12311  Uiso   1.00
C935   C     0.07082   0.65868   0.02869   0.12311  Uiso   1.00
C936   C     0.05711   0.65721   0.03420   0.12311  Uiso   1.00
N937   N     0.01391   0.65677   0.02682   0.12311  Uiso   1.00
N938   N     0.01276   0.67838   0.23314   0.12311  Uiso   1.00
H939   H     0.03068   0.64389   0.06958   0.12311  Uiso   1.00
H940   H     0.02730   0.70757   0.19085   0.12311  Uiso   1.00
H941   H     0.07651   0.63898   0.04829   0.12311  Uiso   1.00
H942   H     0.05342   0.63652   0.05758   0.12311  Uiso   1.00
H943   H     0.08362   0.55718   0.11959   0.12311  Uiso   0.00
C944   C     0.09798   0.53174   0.08448   0.12311  Uiso   1.00
C945   C     0.09983   0.56671   0.15517   0.12311  Uiso   1.00
C946   C     0.09102   0.55333   0.11971   0.12311  Uiso   1.00
C947   C     0.07622   0.56104   0.11948   0.12311  Uiso   1.00
C948   C     0.05418   0.53368   0.09631   0.12311  Uiso   1.00
C949   C     0.06789   0.53221   0.09080   0.12311  Uiso   1.00
N950   N     0.11109   0.53177   0.09818   0.12311  Uiso   1.00
N951   N     0.11224   0.55338   0.14186   0.12311  Uiso   1.00
H952   H     0.09432   0.51889   0.05542   0.12311  Uiso   1.00
H953   H     0.09770   0.58257   0.18415   0.12311  Uiso   1.00
H954   H     0.04849   0.51398   0.07671   0.12311  Uiso   1.00
H955   H     0.07158   0.51152   0.06742   0.12311  Uiso   1.00
H956   H     0.20862   0.68218   0.11959   0.12311  Uiso   0.00
C957   C     0.22298   0.65674   0.08448   0.12311  Uiso   1.00
C958   C     0.22483   0.69171   0.15517   0.12311  Uiso   1.00
C959   C     0.21602   0.67833   0.11971   0.12311  Uiso   1.00
C960   C     0.20122   0.68604   0.11948   0.12311  Uiso   1.00
C961   C     0.17918   0.65868   0.09631   0.12311  Uiso   1.00
C962   C     0.19289   0.65721   0.09080   0.12311  Uiso   1.00
N963   N     0.23609   0.65677   0.09818   0.12311  Uiso   1.00
N964   N     0.23724   0.67838   0.14186   0.12311  Uiso   1.00
H965   H     0.21932   0.64389   0.05542   0.12311  Uiso   1.00
H966   H     0.22270   0.70757   0.18415   0.12311  Uiso   1.00
H967   H     0.17349   0.63898   0.07671   0.12311  Uiso   1.00
H968   H     0.19658   0.63652   0.06742   0.12311  Uiso   1.00
Fe969  Fe    0.00000   0.61461   0.06250   0.12311  Uiso   1.00
Fe970  Fe    0.12500   0.73961   0.06250   0.12311  Uiso   1.00
Fe971  Fe    0.00000   0.63539   0.18750   0.12311  Uiso   1.00
Fe972  Fe    0.12500   0.51039   0.18750   0.12311  Uiso   1.00
H973   H     0.33362   0.69282   0.24459   0.12311  Uiso   0.00
C974   C     0.34798   0.71826   0.20948   0.12311  Uiso   1.00
C975   C     0.34983   0.68329   0.03017   0.12311  Uiso   1.00
C976   C     0.34102   0.69667   0.24471   0.12311  Uiso   1.00
C977   C     0.32622   0.68896   0.24448   0.12311  Uiso   1.00
C978   C     0.30418   0.71632   0.22131   0.12311  Uiso   1.00
C979   C     0.31789   0.71779   0.21580   0.12311  Uiso   1.00
N980   N     0.36109   0.71823   0.22318   0.12311  Uiso   1.00
N981   N     0.36224   0.69662   0.01686   0.12311  Uiso   1.00
H982   H     0.34432   0.73111   0.18042   0.12311  Uiso   1.00
H983   H     0.34770   0.66743   0.05915   0.12311  Uiso   1.00
H984   H     0.29849   0.73602   0.20171   0.12311  Uiso   1.00
H985   H     0.32158   0.73848   0.19242   0.12311  Uiso   1.00
H986   H     0.45862   0.56782   0.24459   0.12311  Uiso   0.00
C987   C     0.47298   0.59326   0.20948   0.12311  Uiso   1.00
C988   C     0.47483   0.55829   0.03017   0.12311  Uiso   1.00
C989   C     0.46602   0.57167   0.24471   0.12311  Uiso   1.00
C990   C     0.45122   0.56396   0.24448   0.12311  Uiso   1.00
C991   C     0.42918   0.59132   0.22131   0.12311  Uiso   1.00
C992   C     0.44289   0.59279   0.21580   0.12311  Uiso   1.00
N993   N     0.48609   0.59323   0.22318   0.12311  Uiso   1.00
N994   N     0.48724   0.57162   0.01686   0.12311  Uiso   1.00
H995   H     0.46932   0.60611   0.18042   0.12311  Uiso   1.00
H996   H     0.47270   0.54243   0.05915   0.12311  Uiso   1.00
H997   H     0.42349   0.61102   0.20171   0.12311  Uiso   1.00
H998   H     0.44658   0.61348   0.19242   0.12311  Uiso   1.00
H999   H     0.41638   0.69282   0.13041   0.12311  Uiso   0.00
C1000  C     0.40202   0.71826   0.16552   0.12311  Uiso   1.00
C1001  C     0.40017   0.68329   0.09483   0.12311  Uiso   1.00
C1002  C     0.40898   0.69667   0.13029   0.12311  Uiso   1.00
C1003  C     0.42378   0.68896   0.13052   0.12311  Uiso   1.00
C1004  C     0.44582   0.71632   0.15369   0.12311  Uiso   1.00
C1005  C     0.43211   0.71779   0.15920   0.12311  Uiso   1.00
N1006  N     0.38891   0.71823   0.15182   0.12311  Uiso   1.00
N1007  N     0.38776   0.69662   0.10814   0.12311  Uiso   1.00
H1008  H     0.40568   0.73111   0.19458   0.12311  Uiso   1.00
H1009  H     0.40230   0.66743   0.06585   0.12311  Uiso   1.00
H1010  H     0.45151   0.73602   0.17329   0.12311  Uiso   1.00
H1011  H     0.42842   0.73848   0.18258   0.12311  Uiso   1.00
H1012  H     0.29138   0.56782   0.13041   0.12311  Uiso   0.00
C1013  C     0.27702   0.59326   0.16552   0.12311  Uiso   1.00
C1014  C     0.27517   0.55829   0.09483   0.12311  Uiso   1.00
C1015  C     0.28398   0.57167   0.13029   0.12311  Uiso   1.00
C1016  C     0.29878   0.56396   0.13052   0.12311  Uiso   1.00
C1017  C     0.32082   0.59132   0.15369   0.12311  Uiso   1.00
C1018  C     0.30711   0.59279   0.15920   0.12311  Uiso   1.00
N1019  N     0.26391   0.59323   0.15182   0.12311  Uiso   1.00
N1020  N     0.26276   0.57162   0.10814   0.12311  Uiso   1.00
H1021  H     0.28068   0.60611   0.19458   0.12311  Uiso   1.00
H1022  H     0.27730   0.54243   0.06585   0.12311  Uiso   1.00
H1023  H     0.32651   0.61102   0.17329   0.12311  Uiso   1.00
H1024  H     0.30342   0.61348   0.18258   0.12311  Uiso   1.00
H1025  H     0.41638   0.55718   0.00541   0.12311  Uiso   0.00
C1026  C     0.40202   0.53174   0.04052   0.12311  Uiso   1.00
C1027  C     0.40017   0.56671   0.21983   0.12311  Uiso   1.00
C1028  C     0.40898   0.55333   0.00529   0.12311  Uiso   1.00
C1029  C     0.42378   0.56104   0.00552   0.12311  Uiso   1.00
C1030  C     0.44582   0.53368   0.02869   0.12311  Uiso   1.00
C1031  C     0.43211   0.53221   0.03420   0.12311  Uiso   1.00
N1032  N     0.38891   0.53177   0.02682   0.12311  Uiso   1.00
N1033  N     0.38776   0.55338   0.23314   0.12311  Uiso   1.00
H1034  H     0.40568   0.51889   0.06958   0.12311  Uiso   1.00
H1035  H     0.40230   0.58257   0.19085   0.12311  Uiso   1.00
H1036  H     0.45151   0.51398   0.04829   0.12311  Uiso   1.00
H1037  H     0.42842   0.51152   0.05758   0.12311  Uiso   1.00
H1038  H     0.29138   0.68218   0.00541   0.12311  Uiso   0.00
C1039  C     0.27702   0.65674   0.04052   0.12311  Uiso   1.00
C1040  C     0.27517   0.69171   0.21983   0.12311  Uiso   1.00
C1041  C     0.28398   0.67833   0.00529   0.12311  Uiso   1.00
C1042  C     0.29878   0.68604   0.00552   0.12311  Uiso   1.00
C1043  C     0.32082   0.65868   0.02869   0.12311  Uiso   1.00
C1044  C     0.30711   0.65721   0.03420   0.12311  Uiso   1.00
N1045  N     0.26391   0.65677   0.02682   0.12311  Uiso   1.00
N1046  N     0.26276   0.67838   0.23314   0.12311  Uiso   1.00
H1047  H     0.28068   0.64389   0.06958   0.12311  Uiso   1.00
H1048  H     0.27730   0.70757   0.19085   0.12311  Uiso   1.00
H1049  H     0.32651   0.63898   0.04829   0.12311  Uiso   1.00
H1050  H     0.30342   0.63652   0.05758   0.12311  Uiso   1.00
H1051  H     0.33362   0.55718   0.11959   0.12311  Uiso   0.00
C1052  C     0.34798   0.53174   0.08448   0.12311  Uiso   1.00
C1053  C     0.34983   0.56671   0.15517   0.12311  Uiso   1.00
C1054  C     0.34102   0.55333   0.11971   0.12311  Uiso   1.00
C1055  C     0.32622   0.56104   0.11948   0.12311  Uiso   1.00
C1056  C     0.30418   0.53368   0.09631   0.12311  Uiso   1.00
C1057  C     0.31789   0.53221   0.09080   0.12311  Uiso   1.00
N1058  N     0.36109   0.53177   0.09818   0.12311  Uiso   1.00
N1059  N     0.36224   0.55338   0.14186   0.12311  Uiso   1.00
H1060  H     0.34432   0.51889   0.05542   0.12311  Uiso   1.00
H1061  H     0.34770   0.58257   0.18415   0.12311  Uiso   1.00
H1062  H     0.29849   0.51398   0.07671   0.12311  Uiso   1.00
H1063  H     0.32158   0.51152   0.06742   0.12311  Uiso   1.00
H1064  H     0.45862   0.68218   0.11959   0.12311  Uiso   0.00
C1065  C     0.47298   0.65674   0.08448   0.12311  Uiso   1.00
C1066  C     0.47483   0.69171   0.15517   0.12311  Uiso   1.00
C1067  C     0.46602   0.67833   0.11971   0.12311  Uiso   1.00
C1068  C     0.45122   0.68604   0.11948   0.12311  Uiso   1.00
C1069  C     0.42918   0.65868   0.09631   0.12311  Uiso   1.00
C1070  C     0.44289   0.65721   0.09080   0.12311  Uiso   1.00
N1071  N     0.48609   0.65677   0.09818   0.12311  Uiso   1.00
N1072  N     0.48724   0.67838   0.14186   0.12311  Uiso   1.00
H1073  H     0.46932   0.64389   0.05542   0.12311  Uiso   1.00
H1074  H     0.47270   0.70757   0.18415   0.12311  Uiso   1.00
H1075  H     0.42349   0.63898   0.07671   0.12311  Uiso   1.00
H1076  H     0.44658   0.63652   0.06742   0.12311  Uiso   1.00
Fe1077 Fe    0.25000   0.61461   0.06250   0.12311  Uiso   1.00
Fe1078 Fe    0.37500   0.73961   0.06250   0.12311  Uiso   1.00
Fe1079 Fe    0.25000   0.63539   0.18750   0.12311  Uiso   1.00
Fe1080 Fe    0.37500   0.51039   0.18750   0.12311  Uiso   1.00
H1081  H     0.58362   0.69282   0.24459   0.12311  Uiso   0.00
C1082  C     0.59798   0.71826   0.20948   0.12311  Uiso   1.00
C1083  C     0.59983   0.68329   0.03017   0.12311  Uiso   1.00
C1084  C     0.59102   0.69667   0.24471   0.12311  Uiso   1.00
C1085  C     0.57622   0.68896   0.24448   0.12311  Uiso   1.00
C1086  C     0.55418   0.71632   0.22131   0.12311  Uiso   1.00
C1087  C     0.56789   0.71779   0.21580   0.12311  Uiso   1.00
N1088  N     0.61109   0.71823   0.22318   0.12311  Uiso   1.00
N1089  N     0.61224   0.69662   0.01686   0.12311  Uiso   1.00
H1090  H     0.59432   0.73111   0.18042   0.12311  Uiso   1.00
H1091  H     0.59770   0.66743   0.05915   0.12311  Uiso   1.00
H1092  H     0.54849   0.73602   0.20171   0.12311  Uiso   1.00
H1093  H     0.57158   0.73848   0.19242   0.12311  Uiso   1.00
H1094  H     0.70862   0.56782   0.24459   0.12311  Uiso   0.00
C1095  C     0.72298   0.59326   0.20948   0.12311  Uiso   1.00
C1096  C     0.72483   0.55829   0.03017   0.12311  Uiso   1.00
C1097  C     0.71602   0.57167   0.24471   0.12311  Uiso   1.00
C1098  C     0.70122   0.56396   0.24448   0.12311  Uiso   1.00
C1099  C     0.67918   0.59132   0.22131   0.12311  Uiso   1.00
C1100  C     0.69289   0.59279   0.21580   0.12311  Uiso   1.00
N1101  N     0.73609   0.59323   0.22318   0.12311  Uiso   1.00
N1102  N     0.73724   0.57162   0.01686   0.12311  Uiso   1.00
H1103  H     0.71932   0.60611   0.18042   0.12311  Uiso   1.00
H1104  H     0.72270   0.54243   0.05915   0.12311  Uiso   1.00
H1105  H     0.67349   0.61102   0.20171   0.12311  Uiso   1.00
H1106  H     0.69658   0.61348   0.19242   0.12311  Uiso   1.00
H1107  H     0.66638   0.69282   0.13041   0.12311  Uiso   0.00
C1108  C     0.65202   0.71826   0.16552   0.12311  Uiso   1.00
C1109  C     0.65017   0.68329   0.09483   0.12311  Uiso   1.00
C1110  C     0.65898   0.69667   0.13029   0.12311  Uiso   1.00
C1111  C     0.67378   0.68896   0.13052   0.12311  Uiso   1.00
C1112  C     0.69582   0.71632   0.15369   0.12311  Uiso   1.00
C1113  C     0.68211   0.71779   0.15920   0.12311  Uiso   1.00
N1114  N     0.63891   0.71823   0.15182   0.12311  Uiso   1.00
N1115  N     0.63776   0.69662   0.10814   0.12311  Uiso   1.00
H1116  H     0.65568   0.73111   0.19458   0.12311  Uiso   1.00
H1117  H     0.65230   0.66743   0.06585   0.12311  Uiso   1.00
H1118  H     0.70151   0.73602   0.17329   0.12311  Uiso   1.00
H1119  H     0.67842   0.73848   0.18258   0.12311  Uiso   1.00
H1120  H     0.54138   0.56782   0.13041   0.12311  Uiso   0.00
C1121  C     0.52702   0.59326   0.16552   0.12311  Uiso   1.00
C1122  C     0.52517   0.55829   0.09483   0.12311  Uiso   1.00
C1123  C     0.53398   0.57167   0.13029   0.12311  Uiso   1.00
C1124  C     0.54878   0.56396   0.13052   0.12311  Uiso   1.00
C1125  C     0.57082   0.59132   0.15369   0.12311  Uiso   1.00
C1126  C     0.55711   0.59279   0.15920   0.12311  Uiso   1.00
N1127  N     0.51391   0.59323   0.15182   0.12311  Uiso   1.00
N1128  N     0.51276   0.57162   0.10814   0.12311  Uiso   1.00
H1129  H     0.53068   0.60611   0.19458   0.12311  Uiso   1.00
H1130  H     0.52730   0.54243   0.06585   0.12311  Uiso   1.00
H1131  H     0.57651   0.61102   0.17329   0.12311  Uiso   1.00
H1132  H     0.55342   0.61348   0.18258   0.12311  Uiso   1.00
H1133  H     0.66638   0.55718   0.00541   0.12311  Uiso   0.00
C1134  C     0.65202   0.53174   0.04052   0.12311  Uiso   1.00
C1135  C     0.65017   0.56671   0.21983   0.12311  Uiso   1.00
C1136  C     0.65898   0.55333   0.00529   0.12311  Uiso   1.00
C1137  C     0.67378   0.56104   0.00552   0.12311  Uiso   1.00
C1138  C     0.69582   0.53368   0.02869   0.12311  Uiso   1.00
C1139  C     0.68211   0.53221   0.03420   0.12311  Uiso   1.00
N1140  N     0.63891   0.53177   0.02682   0.12311  Uiso   1.00
N1141  N     0.63776   0.55338   0.23314   0.12311  Uiso   1.00
H1142  H     0.65568   0.51889   0.06958   0.12311  Uiso   1.00
H1143  H     0.65230   0.58257   0.19085   0.12311  Uiso   1.00
H1144  H     0.70151   0.51398   0.04829   0.12311  Uiso   1.00
H1145  H     0.67842   0.51152   0.05758   0.12311  Uiso   1.00
H1146  H     0.54138   0.68218   0.00541   0.12311  Uiso   0.00
C1147  C     0.52702   0.65674   0.04052   0.12311  Uiso   1.00
C1148  C     0.52517   0.69171   0.21983   0.12311  Uiso   1.00
C1149  C     0.53398   0.67833   0.00529   0.12311  Uiso   1.00
C1150  C     0.54878   0.68604   0.00552   0.12311  Uiso   1.00
C1151  C     0.57082   0.65868   0.02869   0.12311  Uiso   1.00
C1152  C     0.55711   0.65721   0.03420   0.12311  Uiso   1.00
N1153  N     0.51391   0.65677   0.02682   0.12311  Uiso   1.00
N1154  N     0.51276   0.67838   0.23314   0.12311  Uiso   1.00
H1155  H     0.53068   0.64389   0.06958   0.12311  Uiso   1.00
H1156  H     0.52730   0.70757   0.19085   0.12311  Uiso   1.00
H1157  H     0.57651   0.63898   0.04829   0.12311  Uiso   1.00
H1158  H     0.55342   0.63652   0.05758   0.12311  Uiso   1.00
H1159  H     0.58362   0.55718   0.11959   0.12311  Uiso   0.00
C1160  C     0.59798   0.53174   0.08448   0.12311  Uiso   1.00
C1161  C     0.59983   0.56671   0.15517   0.12311  Uiso   1.00
C1162  C     0.59102   0.55333   0.11971   0.12311  Uiso   1.00
C1163  C     0.57622   0.56104   0.11948   0.12311  Uiso   1.00
C1164  C     0.55418   0.53368   0.09631   0.12311  Uiso   1.00
C1165  C     0.56789   0.53221   0.09080   0.12311  Uiso   1.00
N1166  N     0.61109   0.53177   0.09818   0.12311  Uiso   1.00
N1167  N     0.61224   0.55338   0.14186   0.12311  Uiso   1.00
H1168  H     0.59432   0.51889   0.05542   0.12311  Uiso   1.00
H1169  H     0.59770   0.58257   0.18415   0.12311  Uiso   1.00
H1170  H     0.54849   0.51398   0.07671   0.12311  Uiso   1.00
H1171  H     0.57158   0.51152   0.06742   0.12311  Uiso   1.00
H1172  H     0.70862   0.68218   0.11959   0.12311  Uiso   0.00
C1173  C     0.72298   0.65674   0.08448   0.12311  Uiso   1.00
C1174  C     0.72483   0.69171   0.15517   0.12311  Uiso   1.00
C1175  C     0.71602   0.67833   0.11971   0.12311  Uiso   1.00
C1176  C     0.70122   0.68604   0.11948   0.12311  Uiso   1.00
C1177  C     0.67918   0.65868   0.09631   0.12311  Uiso   1.00
C1178  C     0.69289   0.65721   0.09080   0.12311  Uiso   1.00
N1179  N     0.73609   0.65677   0.09818   0.12311  Uiso   1.00
N1180  N     0.73724   0.67838   0.14186   0.12311  Uiso   1.00
H1181  H     0.71932   0.64389   0.05542   0.12311  Uiso   1.00
H1182  H     0.72270   0.70757   0.18415   0.12311  Uiso   1.00
H1183  H     0.67349   0.63898   0.07671   0.12311  Uiso   1.00
H1184  H     0.69658   0.63652   0.06742   0.12311  Uiso   1.00
Fe1185 Fe    0.50000   0.61461   0.06250   0.12311  Uiso   1.00
Fe1186 Fe    0.62500   0.73961   0.06250   0.12311  Uiso   1.00
Fe1187 Fe    0.50000   0.63539   0.18750   0.12311  Uiso   1.00
Fe1188 Fe    0.62500   0.51039   0.18750   0.12311  Uiso   1.00
H1189  H     0.83362   0.69282   0.24459   0.12311  Uiso   0.00
C1190  C     0.84798   0.71826   0.20948   0.12311  Uiso   1.00
C1191  C     0.84983   0.68329   0.03017   0.12311  Uiso   1.00
C1192  C     0.84102   0.69667   0.24471   0.12311  Uiso   1.00
C1193  C     0.82622   0.68896   0.24448   0.12311  Uiso   1.00
C1194  C     0.80418   0.71632   0.22131   0.12311  Uiso   1.00
C1195  C     0.81789   0.71779   0.21580   0.12311  Uiso   1.00
N1196  N     0.86109   0.71823   0.22318   0.12311  Uiso   1.00
N1197  N     0.86224   0.69662   0.01686   0.12311  Uiso   1.00
H1198  H     0.84432   0.73111   0.18042   0.12311  Uiso   1.00
H1199  H     0.84770   0.66743   0.05915   0.12311  Uiso   1.00
H1200  H     0.79849   0.73602   0.20171   0.12311  Uiso   1.00
H1201  H     0.82158   0.73848   0.19242   0.12311  Uiso   1.00
H1202  H     0.95862   0.56782   0.24459   0.12311  Uiso   0.00
C1203  C     0.97298   0.59326   0.20948   0.12311  Uiso   1.00
C1204  C     0.97483   0.55829   0.03017   0.12311  Uiso   1.00
C1205  C     0.96602   0.57167   0.24471   0.12311  Uiso   1.00
C1206  C     0.95122   0.56396   0.24448   0.12311  Uiso   1.00
C1207  C     0.92918   0.59132   0.22131   0.12311  Uiso   1.00
C1208  C     0.94289   0.59279   0.21580   0.12311  Uiso   1.00
N1209  N     0.98609   0.59323   0.22318   0.12311  Uiso   1.00
N1210  N     0.98724   0.57162   0.01686   0.12311  Uiso   1.00
H1211  H     0.96932   0.60611   0.18042   0.12311  Uiso   1.00
H1212  H     0.97270   0.54243   0.05915   0.12311  Uiso   1.00
H1213  H     0.92349   0.61102   0.20171   0.12311  Uiso   1.00
H1214  H     0.94658   0.61348   0.19242   0.12311  Uiso   1.00
H1215  H     0.91638   0.69282   0.13041   0.12311  Uiso   0.00
C1216  C     0.90202   0.71826   0.16552   0.12311  Uiso   1.00
C1217  C     0.90017   0.68329   0.09483   0.12311  Uiso   1.00
C1218  C     0.90898   0.69667   0.13029   0.12311  Uiso   1.00
C1219  C     0.92378   0.68896   0.13052   0.12311  Uiso   1.00
C1220  C     0.94582   0.71632   0.15369   0.12311  Uiso   1.00
C1221  C     0.93211   0.71779   0.15920   0.12311  Uiso   1.00
N1222  N     0.88891   0.71823   0.15182   0.12311  Uiso   1.00
N1223  N     0.88776   0.69662   0.10814   0.12311  Uiso   1.00
H1224  H     0.90568   0.73111   0.19458   0.12311  Uiso   1.00
H1225  H     0.90230   0.66743   0.06585   0.12311  Uiso   1.00
H1226  H     0.95151   0.73602   0.17329   0.12311  Uiso   1.00
H1227  H     0.92842   0.73848   0.18258   0.12311  Uiso   1.00
H1228  H     0.79138   0.56782   0.13041   0.12311  Uiso   0.00
C1229  C     0.77702   0.59326   0.16552   0.12311  Uiso   1.00
C1230  C     0.77517   0.55829   0.09483   0.12311  Uiso   1.00
C1231  C     0.78398   0.57167   0.13029   0.12311  Uiso   1.00
C1232  C     0.79878   0.56396   0.13052   0.12311  Uiso   1.00
C1233  C     0.82082   0.59132   0.15369   0.12311  Uiso   1.00
C1234  C     0.80711   0.59279   0.15920   0.12311  Uiso   1.00
N1235  N     0.76391   0.59323   0.15182   0.12311  Uiso   1.00
N1236  N     0.76276   0.57162   0.10814   0.12311  Uiso   1.00
H1237  H     0.78068   0.60611   0.19458   0.12311  Uiso   1.00
H1238  H     0.77730   0.54243   0.06585   0.12311  Uiso   1.00
H1239  H     0.82651   0.61102   0.17329   0.12311  Uiso   1.00
H1240  H     0.80342   0.61348   0.18258   0.12311  Uiso   1.00
H1241  H     0.91638   0.55718   0.00541   0.12311  Uiso   0.00
C1242  C     0.90202   0.53174   0.04052   0.12311  Uiso   1.00
C1243  C     0.90017   0.56671   0.21983   0.12311  Uiso   1.00
C1244  C     0.90898   0.55333   0.00529   0.12311  Uiso   1.00
C1245  C     0.92378   0.56104   0.00552   0.12311  Uiso   1.00
C1246  C     0.94582   0.53368   0.02869   0.12311  Uiso   1.00
C1247  C     0.93211   0.53221   0.03420   0.12311  Uiso   1.00
N1248  N     0.88891   0.53177   0.02682   0.12311  Uiso   1.00
N1249  N     0.88776   0.55338   0.23314   0.12311  Uiso   1.00
H1250  H     0.90568   0.51889   0.06958   0.12311  Uiso   1.00
H1251  H     0.90230   0.58257   0.19085   0.12311  Uiso   1.00
H1252  H     0.95151   0.51398   0.04829   0.12311  Uiso   1.00
H1253  H     0.92842   0.51152   0.05758   0.12311  Uiso   1.00
H1254  H     0.79138   0.68218   0.00541   0.12311  Uiso   0.00
C1255  C     0.77702   0.65674   0.04052   0.12311  Uiso   1.00
C1256  C     0.77517   0.69171   0.21983   0.12311  Uiso   1.00
C1257  C     0.78398   0.67833   0.00529   0.12311  Uiso   1.00
C1258  C     0.79878   0.68604   0.00552   0.12311  Uiso   1.00
C1259  C     0.82082   0.65868   0.02869   0.12311  Uiso   1.00
C1260  C     0.80711   0.65721   0.03420   0.12311  Uiso   1.00
N1261  N     0.76391   0.65677   0.02682   0.12311  Uiso   1.00
N1262  N     0.76276   0.67838   0.23314   0.12311  Uiso   1.00
H1263  H     0.78068   0.64389   0.06958   0.12311  Uiso   1.00
H1264  H     0.77730   0.70757   0.19085   0.12311  Uiso   1.00
H1265  H     0.82651   0.63898   0.04829   0.12311  Uiso   1.00
H1266  H     0.80342   0.63652   0.05758   0.12311  Uiso   1.00
H1267  H     0.83362   0.55718   0.11959   0.12311  Uiso   0.00
C1268  C     0.84798   0.53174   0.08448   0.12311  Uiso   1.00
C1269  C     0.84983   0.56671   0.15517   0.12311  Uiso   1.00
C1270  C     0.84102   0.55333   0.11971   0.12311  Uiso   1.00
C1271  C     0.82622   0.56104   0.11948   0.12311  Uiso   1.00
C1272  C     0.80418   0.53368   0.09631   0.12311  Uiso   1.00
C1273  C     0.81789   0.53221   0.09080   0.12311  Uiso   1.00
N1274  N     0.86109   0.53177   0.09818   0.12311  Uiso   1.00
N1275  N     0.86224   0.55338   0.14186   0.12311  Uiso   1.00
H1276  H     0.84432   0.51889   0.05542   0.12311  Uiso   1.00
H1277  H     0.84770   0.58257   0.18415   0.12311  Uiso   1.00
H1278  H     0.79849   0.51398   0.07671   0.12311  Uiso   1.00
H1279  H     0.82158   0.51152   0.06742   0.12311  Uiso   1.00
H1280  H     0.95862   0.68218   0.11959   0.12311  Uiso   0.00
C1281  C     0.97298   0.65674   0.08448   0.12311  Uiso   1.00
C1282  C     0.97483   0.69171   0.15517   0.12311  Uiso   1.00
C1283  C     0.96602   0.67833   0.11971   0.12311  Uiso   1.00
C1284  C     0.95122   0.68604   0.11948   0.12311  Uiso   1.00
C1285  C     0.92918   0.65868   0.09631   0.12311  Uiso   1.00
C1286  C     0.94289   0.65721   0.09080   0.12311  Uiso   1.00
N1287  N     0.98609   0.65677   0.09818   0.12311  Uiso   1.00
N1288  N     0.98724   0.67838   0.14186   0.12311  Uiso   1.00
H1289  H     0.96932   0.64389   0.05542   0.12311  Uiso   1.00
H1290  H     0.97270   0.70757   0.18415   0.12311  Uiso   1.00
H1291  H     0.92349   0.63898   0.07671   0.12311  Uiso   1.00
H1292  H     0.94658   0.63652   0.06742   0.12311  Uiso   1.00
Fe1293 Fe    0.75000   0.61461   0.06250   0.12311  Uiso   1.00
Fe1294 Fe    0.87500   0.73961   0.06250   0.12311  Uiso   1.00
Fe1295 Fe    0.75000   0.63539   0.18750   0.12311  Uiso   1.00
Fe1296 Fe    0.87500   0.51039   0.18750   0.12311  Uiso   1.00
H1297  H     0.08362   0.94282   0.24459   0.12311  Uiso   0.00
C1298  C     0.09798   0.96826   0.20948   0.12311  Uiso   1.00
C1299  C     0.09983   0.93329   0.03017   0.12311  Uiso   1.00
C1300  C     0.09102   0.94667   0.24471   0.12311  Uiso   1.00
C1301  C     0.07622   0.93896   0.24448   0.12311  Uiso   1.00
C1302  C     0.05418   0.96632   0.22131   0.12311  Uiso   1.00
C1303  C     0.06789   0.96779   0.21580   0.12311  Uiso   1.00
N1304  N     0.11109   0.96823   0.22318   0.12311  Uiso   1.00
N1305  N     0.11224   0.94662   0.01686   0.12311  Uiso   1.00
H1306  H     0.09432   0.98111   0.18042   0.12311  Uiso   1.00
H1307  H     0.09770   0.91743   0.05915   0.12311  Uiso   1.00
H1308  H     0.04849   0.98602   0.20171   0.12311  Uiso   1.00
H1309  H     0.07158   0.98848   0.19242   0.12311  Uiso   1.00
H1310  H     0.20862   0.81782   0.24459   0.12311  Uiso   0.00
C1311  C     0.22298   0.84326   0.20948   0.12311  Uiso   1.00
C1312  C     0.22483   0.80829   0.03017   0.12311  Uiso   1.00
C1313  C     0.21602   0.82167   0.24471   0.12311  Uiso   1.00
C1314  C     0.20122   0.81396   0.24448   0.12311  Uiso   1.00
C1315  C     0.17918   0.84132   0.22131   0.12311  Uiso   1.00
C1316  C     0.19289   0.84279   0.21580   0.12311  Uiso   1.00
N1317  N     0.23609   0.84323   0.22318   0.12311  Uiso   1.00
N1318  N     0.23724   0.82162   0.01686   0.12311  Uiso   1.00
H1319  H     0.21932   0.85611   0.18042   0.12311  Uiso   1.00
H1320  H     0.22270   0.79243   0.05915   0.12311  Uiso   1.00
H1321  H     0.17349   0.86102   0.20171   0.12311  Uiso   1.00
H1322  H     0.19658   0.86348   0.19242   0.12311  Uiso   1.00
H1323  H     0.16638   0.94282   0.13041   0.12311  Uiso   0.00
C1324  C     0.15202   0.96826   0.16552   0.12311  Uiso   1.00
C1325  C     0.15017   0.93329   0.09483   0.12311  Uiso   1.00
C1326  C     0.15898   0.94667   0.13029   0.12311  Uiso   1.00
C1327  C     0.17378   0.93896   0.13052   0.12311  Uiso   1.00
C1328  C     0.19582   0.96632   0.15369   0.12311  Uiso   1.00
C1329  C     0.18211   0.96779   0.15920   0.12311  Uiso   1.00
N1330  N     0.13891   0.96823   0.15182   0.12311  Uiso   1.00
N1331  N     0.13776   0.94662   0.10814   0.12311  Uiso   1.00
H1332  H     0.15568   0.98111   0.19458   0.12311  Uiso   1.00
H1333  H     0.15230   0.91743   0.06585   0.12311  Uiso   1.00
H1334  H     0.20151   0.98602   0.17329   0.12311  Uiso   1.00
H1335  H     0.17842   0.98848   0.18258   0.12311  Uiso   1.00
H1336  H     0.04138   0.81782   0.13041   0.12311  Uiso   0.00
C1337  C     0.02702   0.84326   0.16552   0.12311  Uiso   1.00
C1338  C     0.02517   0.80829   0.09483   0.12311  Uiso   1.00
C1339  C     0.03398   0.82167   0.13029   0.12311  Uiso   1.00
C1340  C     0.04878   0.81396   0.13052   0.12311  Uiso   1.00
C1341  C     0.07082   0.84132   0.15369   0.12311  Uiso   1.00
C1342  C     0.05711   0.84279   0.15920   0.12311  Uiso   1.00
N1343  N     0.01391   0.84323   0.15182   0.12311  Uiso   1.00
N1344  N     0.01276   0.82162   0.10814   0.12311  Uiso   1.00
H1345  H     0.03068   0.85611   0.19458   0.12311  Uiso   1.00
H1346  H     0.02730   0.79243   0.06585   0.12311  Uiso   1.00
H1347  H     0.07651   0.86102   0.17329   0.12311  Uiso   1.00
H1348  H     0.05342   0.86348   0.18258   0.12311  Uiso   1.00
H1349  H     0.16638   0.80718   0.00541   0.12311  Uiso   0.00
C1350  C     0.15202   0.78174   0.04052   0.12311  Uiso   1.00
C1351  C     0.15017   0.81671   0.21983   0.12311  Uiso   1.00
C1352  C     0.15898   0.80333   0.00529   0.12311  Uiso   1.00
C1353  C     0.17378   0.81104   0.00552   0.12311  Uiso   1.00
C1354  C     0.19582   0.78368   0.02869   0.12311  Uiso   1.00
C1355  C     0.18211   0.78221   0.03420   0.12311  Uiso   1.00
N1356  N     0.13891   0.78177   0.02682   0.12311  Uiso   1.00
N1357  N     0.13776   0.80338   0.23314   0.12311  Uiso   1.00
H1358  H     0.15568   0.76889   0.06958   0.12311  Uiso   1.00
H1359  H     0.15230   0.83257   0.19085   0.12311  Uiso   1.00
H1360  H     0.20151   0.76398   0.04829   0.12311  Uiso   1.00
H1361  H     0.17842   0.76152   0.05758   0.12311  Uiso   1.00
H1362  H     0.04138   0.93218   0.00541   0.12311  Uiso   0.00
C1363  C     0.02702   0.90674   0.04052   0.12311  Uiso   1.00
C1364  C     0.02517   0.94171   0.21983   0.12311  Uiso   1.00
C1365  C     0.03398   0.92833   0.00529   0.12311  Uiso   1.00
C1366  C     0.04878   0.93604   0.00552   0.12311  Uiso   1.00
C1367  C     0.07082   0.90868   0.02869   0.12311  Uiso   1.00
C1368  C     0.05711   0.90721   0.03420   0.12311  Uiso   1.00
N1369  N     0.01391   0.90677   0.02682   0.12311  Uiso   1.00
N1370  N     0.01276   0.92838   0.23314   0.12311  Uiso   1.00
H1371  H     0.03068   0.89389   0.06958   0.12311  Uiso   1.00
H1372  H     0.02730   0.95757   0.19085   0.12311  Uiso   1.00
H1373  H     0.07651   0.88898   0.04829   0.12311  Uiso   1.00
H1374  H     0.05342   0.88652   0.05758   0.12311  Uiso   1.00
H1375  H     0.08362   0.80718   0.11959   0.12311  Uiso   0.00
C1376  C     0.09798   0.78174   0.08448   0.12311  Uiso   1.00
C1377  C     0.09983   0.81671   0.15517   0.12311  Uiso   1.00
C1378  C     0.09102   0.80333   0.11971   0.12311  Uiso   1.00
C1379  C     0.07622   0.81104   0.11948   0.12311  Uiso   1.00
C1380  C     0.05418   0.78368   0.09631   0.12311  Uiso   1.00
C1381  C     0.06789   0.78221   0.09080   0.12311  Uiso   1.00
N1382  N     0.11109   0.78177   0.09818   0.12311  Uiso   1.00
N1383  N     0.11224   0.80338   0.14186   0.12311  Uiso   1.00
H1384  H     0.09432   0.76889   0.05542   0.12311  Uiso   1.00
H1385  H     0.09770   0.83257   0.18415   0.12311  Uiso   1.00
H1386  H     0.04849   0.76398   0.07671   0.12311  Uiso   1.00
H1387  H     0.07158   0.76152   0.06742   0.12311  Uiso   1.00
H1388  H     0.20862   0.93218   0.11959   0.12311  Uiso   0.00
C1389  C     0.22298   0.90674   0.08448   0.12311  Uiso   1.00
C1390  C     0.22483   0.94171   0.15517   0.12311  Uiso   1.00
C1391  C     0.21602   0.92833   0.11971   0.12311  Uiso   1.00
C1392  C     0.20122   0.93604   0.11948   0.12311  Uiso   1.00
C1393  C     0.17918   0.90868   0.09631   0.12311  Uiso   1.00
C1394  C     0.19289   0.90721   0.09080   0.12311  Uiso   1.00
N1395  N     0.23609   0.90677   0.09818   0.12311  Uiso   1.00
N1396  N     0.23724   0.92838   0.14186   0.12311  Uiso   1.00
H1397  H     0.21932   0.89389   0.05542   0.12311  Uiso   1.00
H1398  H     0.22270   0.95757   0.18415   0.12311  Uiso   1.00
H1399  H     0.17349   0.88898   0.07671   0.12311  Uiso   1.00
H1400  H     0.19658   0.88652   0.06742   0.12311  Uiso   1.00
Fe1401 Fe    0.00000   0.86461   0.06250   0.12311  Uiso   1.00
Fe1402 Fe    0.12500   0.98961   0.06250   0.12311  Uiso   1.00
Fe1403 Fe    0.00000   0.88539   0.18750   0.12311  Uiso   1.00
Fe1404 Fe    0.12500   0.76039   0.18750   0.12311  Uiso   1.00
H1405  H     0.33362   0.94282   0.24459   0.12311  Uiso   0.00
C1406  C     0.34798   0.96826   0.20948   0.12311  Uiso   1.00
C1407  C     0.34983   0.93329   0.03017   0.12311  Uiso   1.00
C1408  C     0.34102   0.94667   0.24471   0.12311  Uiso   1.00
C1409  C     0.32622   0.93896   0.24448   0.12311  Uiso   1.00
C1410  C     0.30418   0.96632   0.22131   0.12311  Uiso   1.00
C1411  C     0.31789   0.96779   0.21580   0.12311  Uiso   1.00
N1412  N     0.36109   0.96823   0.22318   0.12311  Uiso   1.00
N1413  N     0.36224   0.94662   0.01686   0.12311  Uiso   1.00
H1414  H     0.34432   0.98111   0.18042   0.12311  Uiso   1.00
H1415  H     0.34770   0.91743   0.05915   0.12311  Uiso   1.00
H1416  H     0.29849   0.98602   0.20171   0.12311  Uiso   1.00
H1417  H     0.32158   0.98848   0.19242   0.12311  Uiso   1.00
H1418  H     0.45862   0.81782   0.24459   0.12311  Uiso   0.00
C1419  C     0.47298   0.84326   0.20948   0.12311  Uiso   1.00
C1420  C     0.47483   0.80829   0.03017   0.12311  Uiso   1.00
C1421  C     0.46602   0.82167   0.24471   0.12311  Uiso   1.00
C1422  C     0.45122   0.81396   0.24448   0.12311  Uiso   1.00
C1423  C     0.42918   0.84132   0.22131   0.12311  Uiso   1.00
C1424  C     0.44289   0.84279   0.21580   0.12311  Uiso   1.00
N1425  N     0.48609   0.84323   0.22318   0.12311  Uiso   1.00
N1426  N     0.48724   0.82162   0.01686   0.12311  Uiso   1.00
H1427  H     0.46932   0.85611   0.18042   0.12311  Uiso   1.00
H1428  H     0.47270   0.79243   0.05915   0.12311  Uiso   1.00
H1429  H     0.42349   0.86102   0.20171   0.12311  Uiso   1.00
H1430  H     0.44658   0.86348   0.19242   0.12311  Uiso   1.00
H1431  H     0.41638   0.94282   0.13041   0.12311  Uiso   0.00
C1432  C     0.40202   0.96826   0.16552   0.12311  Uiso   1.00
C1433  C     0.40017   0.93329   0.09483   0.12311  Uiso   1.00
C1434  C     0.40898   0.94667   0.13029   0.12311  Uiso   1.00
C1435  C     0.42378   0.93896   0.13052   0.12311  Uiso   1.00
C1436  C     0.44582   0.96632   0.15369   0.12311  Uiso   1.00
C1437  C     0.43211   0.96779   0.15920   0.12311  Uiso   1.00
N1438  N     0.38891   0.96823   0.15182   0.12311  Uiso   1.00
N1439  N     0.38776   0.94662   0.10814   0.12311  Uiso   1.00
H1440  H     0.40568   0.98111   0.19458   0.12311  Uiso   1.00
H1441  H     0.40230   0.91743   0.06585   0.12311  Uiso   1.00
H1442  H     0.45151   0.98602   0.17329   0.12311  Uiso   1.00
H1443  H     0.42842   0.98848   0.18258   0.12311  Uiso   1.00
H1444  H     0.29138   0.81782   0.13041   0.12311  Uiso   0.00
C1445  C     0.27702   0.84326   0.16552   0.12311  Uiso   1.00
C1446  C     0.27517   0.80829   0.09483   0.12311  Uiso   1.00
C1447  C     0.28398   0.82167   0.13029   0.12311  Uiso   1.00
C1448  C     0.29878   0.81396   0.13052   0.12311  Uiso   1.00
C1449  C     0.32082   0.84132   0.15369   0.12311  Uiso   1.00
C1450  C     0.30711   0.84279   0.15920   0.12311  Uiso   1.00
N1451  N     0.26391   0.84323   0.15182   0.12311  Uiso   1.00
N1452  N     0.26276   0.82162   0.10814   0.12311  Uiso   1.00
H1453  H     0.28068   0.85611   0.19458   0.12311  Uiso   1.00
H1454  H     0.27730   0.79243   0.06585   0.12311  Uiso   1.00
H1455  H     0.32651   0.86102   0.17329   0.12311  Uiso   1.00
H1456  H     0.30342   0.86348   0.18258   0.12311  Uiso   1.00
H1457  H     0.41638   0.80718   0.00541   0.12311  Uiso   0.00
C1458  C     0.40202   0.78174   0.04052   0.12311  Uiso   1.00
C1459  C     0.40017   0.81671   0.21983   0.12311  Uiso   1.00
C1460  C     0.40898   0.80333   0.00529   0.12311  Uiso   1.00
C1461  C     0.42378   0.81104   0.00552   0.12311  Uiso   1.00
C1462  C     0.44582   0.78368   0.02869   0.12311  Uiso   1.00
C1463  C     0.43211   0.78221   0.03420   0.12311  Uiso   1.00
N1464  N     0.38891   0.78177   0.02682   0.12311  Uiso   1.00
N1465  N     0.38776   0.80338   0.23314   0.12311  Uiso   1.00
H1466  H     0.40568   0.76889   0.06958   0.12311  Uiso   1.00
H1467  H     0.40230   0.83257   0.19085   0.12311  Uiso   1.00
H1468  H     0.45151   0.76398   0.04829   0.12311  Uiso   1.00
H1469  H     0.42842   0.76152   0.05758   0.12311  Uiso   1.00
H1470  H     0.29138   0.93218   0.00541   0.12311  Uiso   0.00
C1471  C     0.27702   0.90674   0.04052   0.12311  Uiso   1.00
C1472  C     0.27517   0.94171   0.21983   0.12311  Uiso   1.00
C1473  C     0.28398   0.92833   0.00529   0.12311  Uiso   1.00
C1474  C     0.29878   0.93604   0.00552   0.12311  Uiso   1.00
C1475  C     0.32082   0.90868   0.02869   0.12311  Uiso   1.00
C1476  C     0.30711   0.90721   0.03420   0.12311  Uiso   1.00
N1477  N     0.26391   0.90677   0.02682   0.12311  Uiso   1.00
N1478  N     0.26276   0.92838   0.23314   0.12311  Uiso   1.00
H1479  H     0.28068   0.89389   0.06958   0.12311  Uiso   1.00
H1480  H     0.27730   0.95757   0.19085   0.12311  Uiso   1.00
H1481  H     0.32651   0.88898   0.04829   0.12311  Uiso   1.00
H1482  H     0.30342   0.88652   0.05758   0.12311  Uiso   1.00
H1483  H     0.33362   0.80718   0.11959   0.12311  Uiso   0.00
C1484  C     0.34798   0.78174   0.08448   0.12311  Uiso   1.00
C1485  C     0.34983   0.81671   0.15517   0.12311  Uiso   1.00
C1486  C     0.34102   0.80333   0.11971   0.12311  Uiso   1.00
C1487  C     0.32622   0.81104   0.11948   0.12311  Uiso   1.00
C1488  C     0.30418   0.78368   0.09631   0.12311  Uiso   1.00
C1489  C     0.31789   0.78221   0.09080   0.12311  Uiso   1.00
N1490  N     0.36109   0.78177   0.09818   0.12311  Uiso   1.00
N1491  N     0.36224   0.80338   0.14186   0.12311  Uiso   1.00
H1492  H     0.34432   0.76889   0.05542   0.12311  Uiso   1.00
H1493  H     0.34770   0.83257   0.18415   0.12311  Uiso   1.00
H1494  H     0.29849   0.76398   0.07671   0.12311  Uiso   1.00
H1495  H     0.32158   0.76152   0.06742   0.12311  Uiso   1.00
H1496  H     0.45862   0.93218   0.11959   0.12311  Uiso   0.00
C1497  C     0.47298   0.90674   0.08448   0.12311  Uiso   1.00
C1498  C     0.47483   0.94171   0.15517   0.12311  Uiso   1.00
C1499  C     0.46602   0.92833   0.11971   0.12311  Uiso   1.00
C1500  C     0.45122   0.93604   0.11948   0.12311  Uiso   1.00
C1501  C     0.42918   0.90868   0.09631   0.12311  Uiso   1.00
C1502  C     0.44289   0.90721   0.09080   0.12311  Uiso   1.00
N1503  N     0.48609   0.90677   0.09818   0.12311  Uiso   1.00
N1504  N     0.48724   0.92838   0.14186   0.12311  Uiso   1.00
H1505  H     0.46932   0.89389   0.05542   0.12311  Uiso   1.00
H1506  H     0.47270   0.95757   0.18415   0.12311  Uiso   1.00
H1507  H     0.42349   0.88898   0.07671   0.12311  Uiso   1.00
H1508  H     0.44658   0.88652   0.06742   0.12311  Uiso   1.00
Fe1509 Fe    0.25000   0.86461   0.06250   0.12311  Uiso   1.00
Fe1510 Fe    0.37500   0.98961   0.06250   0.12311  Uiso   1.00
Fe1511 Fe    0.25000   0.88539   0.18750   0.12311  Uiso   1.00
Fe1512 Fe    0.37500   0.76039   0.18750   0.12311  Uiso   1.00
H1513  H     0.58362   0.94282   0.24459   0.12311  Uiso   0.00
C1514  C     0.59798   0.96826   0.20948   0.12311  Uiso   1.00
C1515  C     0.59983   0.93329   0.03017   0.12311  Uiso   1.00
C1516  C     0.59102   0.94667   0.24471   0.12311  Uiso   1.00
C1517  C     0.57622   0.93896   0.24448   0.12311  Uiso   1.00
C1518  C     0.55418   0.96632   0.22131   0.12311  Uiso   1.00
C1519  C     0.56789   0.96779   0.21580   0.12311  Uiso   1.00
N1520  N     0.61109   0.96823   0.22318   0.12311  Uiso   1.00
N1521  N     0.61224   0.94662   0.01686   0.12311  Uiso   1.00
H1522  H     0.59432   0.98111   0.18042   0.12311  Uiso   1.00
H1523  H     0.59770   0.91743   0.05915   0.12311  Uiso   1.00
H1524  H     0.54849   0.98602   0.20171   0.12311  Uiso   1.00
H1525  H     0.57158   0.98848   0.19242   0.12311  Uiso   1.00
H1526  H     0.70862   0.81782   0.24459   0.12311  Uiso   0.00
C1527  C     0.72298   0.84326   0.20948   0.12311  Uiso   1.00
C1528  C     0.72483   0.80829   0.03017   0.12311  Uiso   1.00
C1529  C     0.71602   0.82167   0.24471   0.12311  Uiso   1.00
C1530  C     0.70122   0.81396   0.24448   0.12311  Uiso   1.00
C1531  C     0.67918   0.84132   0.22131   0.12311  Uiso   1.00
C1532  C     0.69289   0.84279   0.21580   0.12311  Uiso   1.00
N1533  N     0.73609   0.84323   0.22318   0.12311  Uiso   1.00
N1534  N     0.73724   0.82162   0.01686   0.12311  Uiso   1.00
H1535  H     0.71932   0.85611   0.18042   0.12311  Uiso   1.00
H1536  H     0.72270   0.79243   0.05915   0.12311  Uiso   1.00
H1537  H     0.67349   0.86102   0.20171   0.12311  Uiso   1.00
H1538  H     0.69658   0.86348   0.19242   0.12311  Uiso   1.00
H1539  H     0.66638   0.94282   0.13041   0.12311  Uiso   0.00
C1540  C     0.65202   0.96826   0.16552   0.12311  Uiso   1.00
C1541  C     0.65017   0.93329   0.09483   0.12311  Uiso   1.00
C1542  C     0.65898   0.94667   0.13029   0.12311  Uiso   1.00
C1543  C     0.67378   0.93896   0.13052   0.12311  Uiso   1.00
C1544  C     0.69582   0.96632   0.15369   0.12311  Uiso   1.00
C1545  C     0.68211   0.96779   0.15920   0.12311  Uiso   1.00
N1546  N     0.63891   0.96823   0.15182   0.12311  Uiso   1.00
N1547  N     0.63776   0.94662   0.10814   0.12311  Uiso   1.00
H1548  H     0.65568   0.98111   0.19458   0.12311  Uiso   1.00
H1549  H     0.65230   0.91743   0.06585   0.12311  Uiso   1.00
H1550  H     0.70151   0.98602   0.17329   0.12311  Uiso   1.00
H1551  H     0.67842   0.98848   0.18258   0.12311  Uiso   1.00
H1552  H     0.54138   0.81782   0.13041   0.12311  Uiso   0.00
C1553  C     0.52702   0.84326   0.16552   0.12311  Uiso   1.00
C1554  C     0.52517   0.80829   0.09483   0.12311  Uiso   1.00
C1555  C     0.53398   0.82167   0.13029   0.12311  Uiso   1.00
C1556  C     0.54878   0.81396   0.13052   0.12311  Uiso   1.00
C1557  C     0.57082   0.84132   0.15369   0.12311  Uiso   1.00
C1558  C     0.55711   0.84279   0.15920   0.12311  Uiso   1.00
N1559  N     0.51391   0.84323   0.15182   0.12311  Uiso   1.00
N1560  N     0.51276   0.82162   0.10814   0.12311  Uiso   1.00
H1561  H     0.53068   0.85611   0.19458   0.12311  Uiso   1.00
H1562  H     0.52730   0.79243   0.06585   0.12311  Uiso   1.00
H1563  H     0.57651   0.86102   0.17329   0.12311  Uiso   1.00
H1564  H     0.55342   0.86348   0.18258   0.12311  Uiso   1.00
H1565  H     0.66638   0.80718   0.00541   0.12311  Uiso   0.00
C1566  C     0.65202   0.78174   0.04052   0.12311  Uiso   1.00
C1567  C     0.65017   0.81671   0.21983   0.12311  Uiso   1.00
C1568  C     0.65898   0.80333   0.00529   0.12311  Uiso   1.00
C1569  C     0.67378   0.81104   0.00552   0.12311  Uiso   1.00
C1570  C     0.69582   0.78368   0.02869   0.12311  Uiso   1.00
C1571  C     0.68211   0.78221   0.03420   0.12311  Uiso   1.00
N1572  N     0.63891   0.78177   0.02682   0.12311  Uiso   1.00
N1573  N     0.63776   0.80338   0.23314   0.12311  Uiso   1.00
H1574  H     0.65568   0.76889   0.06958   0.12311  Uiso   1.00
H1575  H     0.65230   0.83257   0.19085   0.12311  Uiso   1.00
H1576  H     0.70151   0.76398   0.04829   0.12311  Uiso   1.00
H1577  H     0.67842   0.76152   0.05758   0.12311  Uiso   1.00
H1578  H     0.54138   0.93218   0.00541   0.12311  Uiso   0.00
C1579  C     0.52702   0.90674   0.04052   0.12311  Uiso   1.00
C1580  C     0.52517   0.94171   0.21983   0.12311  Uiso   1.00
C1581  C     0.53398   0.92833   0.00529   0.12311  Uiso   1.00
C1582  C     0.54878   0.93604   0.00552   0.12311  Uiso   1.00
C1583  C     0.57082   0.90868   0.02869   0.12311  Uiso   1.00
C1584  C     0.55711   0.90721   0.03420   0.12311  Uiso   1.00
N1585  N     0.51391   0.90677   0.02682   0.12311  Uiso   1.00
N1586  N     0.51276   0.92838   0.23314   0.12311  Uiso   1.00
H1587  H     0.53068   0.89389   0.06958   0.12311  Uiso   1.00
H1588  H     0.52730   0.95757   0.19085   0.12311  Uiso   1.00
H1589  H     0.57651   0.88898   0.04829   0.12311  Uiso   1.00
H1590  H     0.55342   0.88652   0.05758   0.12311  Uiso   1.00
H1591  H     0.58362   0.80718   0.11959   0.12311  Uiso   0.00
C1592  C     0.59798   0.78174   0.08448   0.12311  Uiso   1.00
C1593  C     0.59983   0.81671   0.15517   0.12311  Uiso   1.00
C1594  C     0.59102   0.80333   0.11971   0.12311  Uiso   1.00
C1595  C     0.57622   0.81104   0.11948   0.12311  Uiso   1.00
C1596  C     0.55418   0.78368   0.09631   0.12311  Uiso   1.00
C1597  C     0.56789   0.78221   0.09080   0.12311  Uiso   1.00
N1598  N     0.61109   0.78177   0.09818   0.12311  Uiso   1.00
N1599  N     0.61224   0.80338   0.14186   0.12311  Uiso   1.00
H1600  H     0.59432   0.76889   0.05542   0.12311  Uiso   1.00
H1601  H     0.59770   0.83257   0.18415   0.12311  Uiso   1.00
H1602  H     0.54849   0.76398   0.07671   0.12311  Uiso   1.00
H1603  H     0.57158   0.76152   0.06742   0.12311  Uiso   1.00
H1604  H     0.70862   0.93218   0.11959   0.12311  Uiso   0.00
C1605  C     0.72298   0.90674   0.08448   0.12311  Uiso   1.00
C1606  C     0.72483   0.94171   0.15517   0.12311  Uiso   1.00
C1607  C     0.71602   0.92833   0.11971   0.12311  Uiso   1.00
C1608  C     0.70122   0.93604   0.11948   0.12311  Uiso   1.00
C1609  C     0.67918   0.90868   0.09631   0.12311  Uiso   1.00
C1610  C     0.69289   0.90721   0.09080   0.12311  Uiso   1.00
N1611  N     0.73609   0.90677   0.09818   0.12311  Uiso   1.00
N1612  N     0.73724   0.92838   0.14186   0.12311  Uiso   1.00
H1613  H     0.71932   0.89389   0.05542   0.12311  Uiso   1.00
H1614  H     0.72270   0.95757   0.18415   0.12311  Uiso   1.00
H1615  H     0.67349   0.88898   0.07671   0.12311  Uiso   1.00
H1616  H     0.69658   0.88652   0.06742   0.12311  Uiso   1.00
Fe1617 Fe    0.50000   0.86461   0.06250   0.12311  Uiso   1.00
Fe1618 Fe    0.62500   0.98961   0.06250   0.12311  Uiso   1.00
Fe1619 Fe    0.50000   0.88539   0.18750   0.12311  Uiso   1.00
Fe1620 Fe    0.62500   0.76039   0.18750   0.12311  Uiso   1.00
H1621  H     0.83362   0.94282   0.24459   0.12311  Uiso   0.00
C1622  C     0.84798   0.96826   0.20948   0.12311  Uiso   1.00
C1623  C     0.84983   0.93329   0.03017   0.12311  Uiso   1.00
C1624  C     0.84102   0.94667   0.24471   0.12311  Uiso   1.00
C1625  C     0.82622   0.93896   0.24448   0.12311  Uiso   1.00
C1626  C     0.80418   0.96632   0.22131   0.12311  Uiso   1.00
C1627  C     0.81789   0.96779   0.21580   0.12311  Uiso   1.00
N1628  N     0.86109   0.96823   0.22318   0.12311  Uiso   1.00
N1629  N     0.86224   0.94662   0.01686   0.12311  Uiso   1.00
H1630  H     0.84432   0.98111   0.18042   0.12311  Uiso   1.00
H1631  H     0.84770   0.91743   0.05915   0.12311  Uiso   1.00
H1632  H     0.79849   0.98602   0.20171   0.12311  Uiso   1.00
H1633  H     0.82158   0.98848   0.19242   0.12311  Uiso   1.00
H1634  H     0.95862   0.81782   0.24459   0.12311  Uiso   0.00
C1635  C     0.97298   0.84326   0.20948   0.12311  Uiso   1.00
C1636  C     0.97483   0.80829   0.03017   0.12311  Uiso   1.00
C1637  C     0.96602   0.82167   0.24471   0.12311  Uiso   1.00
C1638  C     0.95122   0.81396   0.24448   0.12311  Uiso   1.00
C1639  C     0.92918   0.84132   0.22131   0.12311  Uiso   1.00
C1640  C     0.94289   0.84279   0.21580   0.12311  Uiso   1.00
N1641  N     0.98609   0.84323   0.22318   0.12311  Uiso   1.00
N1642  N     0.98724   0.82162   0.01686   0.12311  Uiso   1.00
H1643  H     0.96932   0.85611   0.18042   0.12311  Uiso   1.00
H1644  H     0.97270   0.79243   0.05915   0.12311  Uiso   1.00
H1645  H     0.92349   0.86102   0.20171   0.12311  Uiso   1.00
H1646  H     0.94658   0.86348   0.19242   0.12311  Uiso   1.00
H1647  H     0.91638   0.94282   0.13041   0.12311  Uiso   0.00
C1648  C     0.90202   0.96826   0.16552   0.12311  Uiso   1.00
C1649  C     0.90017   0.93329   0.09483   0.12311  Uiso   1.00
C1650  C     0.90898   0.94667   0.13029   0.12311  Uiso   1.00
C1651  C     0.92378   0.93896   0.13052   0.12311  Uiso   1.00
C1652  C     0.94582   0.96632   0.15369   0.12311  Uiso   1.00
C1653  C     0.93211   0.96779   0.15920   0.12311  Uiso   1.00
N1654  N     0.88891   0.96823   0.15182   0.12311  Uiso   1.00
N1655  N     0.88776   0.94662   0.10814   0.12311  Uiso   1.00
H1656  H     0.90568   0.98111   0.19458   0.12311  Uiso   1.00
H1657  H     0.90230   0.91743   0.06585   0.12311  Uiso   1.00
H1658  H     0.95151   0.98602   0.17329   0.12311  Uiso   1.00
H1659  H     0.92842   0.98848   0.18258   0.12311  Uiso   1.00
H1660  H     0.79138   0.81782   0.13041   0.12311  Uiso   0.00
C1661  C     0.77702   0.84326   0.16552   0.12311  Uiso   1.00
C1662  C     0.77517   0.80829   0.09483   0.12311  Uiso   1.00
C1663  C     0.78398   0.82167   0.13029   0.12311  Uiso   1.00
C1664  C     0.79878   0.81396   0.13052   0.12311  Uiso   1.00
C1665  C     0.82082   0.84132   0.15369   0.12311  Uiso   1.00
C1666  C     0.80711   0.84279   0.15920   0.12311  Uiso   1.00
N1667  N     0.76391   0.84323   0.15182   0.12311  Uiso   1.00
N1668  N     0.76276   0.82162   0.10814   0.12311  Uiso   1.00
H1669  H     0.78068   0.85611   0.19458   0.12311  Uiso   1.00
H1670  H     0.77730   0.79243   0.06585   0.12311  Uiso   1.00
H1671  H     0.82651   0.86102   0.17329   0.12311  Uiso   1.00
H1672  H     0.80342   0.86348   0.18258   0.12311  Uiso   1.00
H1673  H     0.91638   0.80718   0.00541   0.12311  Uiso   0.00
C1674  C     0.90202   0.78174   0.04052   0.12311  Uiso   1.00
C1675  C     0.90017   0.81671   0.21983   0.12311  Uiso   1.00
C1676  C     0.90898   0.80333   0.00529   0.12311  Uiso   1.00
C1677  C     0.92378   0.81104   0.00552   0.12311  Uiso   1.00
C1678  C     0.94582   0.78368   0.02869   0.12311  Uiso   1.00
C1679  C     0.93211   0.78221   0.03420   0.12311  Uiso   1.00
N1680  N     0.88891   0.78177   0.02682   0.12311  Uiso   1.00
N1681  N     0.88776   0.80338   0.23314   0.12311  Uiso   1.00
H1682  H     0.90568   0.76889   0.06958   0.12311  Uiso   1.00
H1683  H     0.90230   0.83257   0.19085   0.12311  Uiso   1.00
H1684  H     0.95151   0.76398   0.04829   0.12311  Uiso   1.00
H1685  H     0.92842   0.76152   0.05758   0.12311  Uiso   1.00
H1686  H     0.79138   0.93218   0.00541   0.12311  Uiso   0.00
C1687  C     0.77702   0.90674   0.04052   0.12311  Uiso   1.00
C1688  C     0.77517   0.94171   0.21983   0.12311  Uiso   1.00
C1689  C     0.78398   0.92833   0.00529   0.12311  Uiso   1.00
C1690  C     0.79878   0.93604   0.00552   0.12311  Uiso   1.00
C1691  C     0.82082   0.90868   0.02869   0.12311  Uiso   1.00
C1692  C     0.80711   0.90721   0.03420   0.12311  Uiso   1.00
N1693  N     0.76391   0.90677   0.02682   0.12311  Uiso   1.00
N1694  N     0.76276   0.92838   0.23314   0.12311  Uiso   1.00
H1695  H     0.78068   0.89389   0.06958   0.12311  Uiso   1.00
H1696  H     0.77730   0.95757   0.19085   0.12311  Uiso   1.00
H1697  H     0.82651   0.88898   0.04829   0.12311  Uiso   1.00
H1698  H     0.80342   0.88652   0.05758   0.12311  Uiso   1.00
H1699  H     0.83362   0.80718   0.11959   0.12311  Uiso   0.00
C1700  C     0.84798   0.78174   0.08448   0.12311  Uiso   1.00
C1701  C     0.84983   0.81671   0.15517   0.12311  Uiso   1.00
C1702  C     0.84102   0.80333   0.11971   0.12311  Uiso   1.00
C1703  C     0.82622   0.81104   0.11948   0.12311  Uiso   1.00
C1704  C     0.80418   0.78368   0.09631   0.12311  Uiso   1.00
C1705  C     0.81789   0.78221   0.09080   0.12311  Uiso   1.00
N1706  N     0.86109   0.78177   0.09818   0.12311  Uiso   1.00
N1707  N     0.86224   0.80338   0.14186   0.12311  Uiso   1.00
H1708  H     0.84432   0.76889   0.05542   0.12311  Uiso   1.00
H1709  H     0.84770   0.83257   0.18415   0.12311  Uiso   1.00
H1710  H     0.79849   0.76398   0.07671   0.12311  Uiso   1.00
H1711  H     0.82158   0.76152   0.06742   0.12311  Uiso   1.00
H1712  H     0.95862   0.93218   0.11959   0.12311  Uiso   0.00
C1713  C     0.97298   0.90674   0.08448   0.12311  Uiso   1.00
C1714  C     0.97483   0.94171   0.15517   0.12311  Uiso   1.00
C1715  C     0.96602   0.92833   0.11971   0.12311  Uiso   1.00
C1716  C     0.95122   0.93604   0.11948   0.12311  Uiso   1.00
C1717  C     0.92918   0.90868   0.09631   0.12311  Uiso   1.00
C1718  C     0.94289   0.90721   0.09080   0.12311  Uiso   1.00
N1719  N     0.98609   0.90677   0.09818   0.12311  Uiso   1.00
N1720  N     0.98724   0.92838   0.14186   0.12311  Uiso   1.00
H1721  H     0.96932   0.89389   0.05542   0.12311  Uiso   1.00
H1722  H     0.97270   0.95757   0.18415   0.12311  Uiso   1.00
H1723  H     0.92349   0.88898   0.07671   0.12311  Uiso   1.00
H1724  H     0.94658   0.88652   0.06742   0.12311  Uiso   1.00
Fe1725 Fe    0.75000   0.86461   0.06250   0.12311  Uiso   1.00
Fe1726 Fe    0.87500   0.98961   0.06250   0.12311  Uiso   1.00
Fe1727 Fe    0.75000   0.88539   0.18750   0.12311  Uiso   1.00
Fe1728 Fe    0.87500   0.76039   0.18750   0.12311  Uiso   1.00
H1729  H     0.08362   0.19282   0.49459   0.12311  Uiso   0.00
C1730  C     0.09798   0.21826   0.45948   0.12311  Uiso   1.00
C1731  C     0.09983   0.18329   0.28017   0.12311  Uiso   1.00
C1732  C     0.09102   0.19667   0.49471   0.12311  Uiso   1.00
C1733  C     0.07622   0.18896   0.49448   0.12311  Uiso   1.00
C1734  C     0.05418   0.21632   0.47131   0.12311  Uiso   1.00
C1735  C     0.06789   0.21779   0.46580   0.12311  Uiso   1.00
N1736  N     0.11109   0.21823   0.47318   0.12311  Uiso   1.00
N1737  N     0.11224   0.19662   0.26686   0.12311  Uiso   1.00
H1738  H     0.09432   0.23111   0.43042   0.12311  Uiso   1.00
H1739  H     0.09770   0.16743   0.30915   0.12311  Uiso   1.00
H1740  H     0.04849   0.23602   0.45171   0.12311  Uiso   1.00
H1741  H     0.07158   0.23848   0.44242   0.12311  Uiso   1.00
H1742  H     0.20862   0.06782   0.49459   0.12311  Uiso   0.00
C1743  C     0.22298   0.09326   0.45948   0.12311  Uiso   1.00
C1744  C     0.22483   0.05829   0.28017   0.12311  Uiso   1.00
C1745  C     0.21602   0.07167   0.49471   0.12311  Uiso   1.00
C1746  C     0.20122   0.06396   0.49448   0.12311  Uiso   1.00
C1747  C     0.17918   0.09132   0.47131   0.12311  Uiso   1.00
C1748  C     0.19289   0.09279   0.46580   0.12311  Uiso   1.00
N1749  N     0.23609   0.09323   0.47318   0.12311  Uiso   1.00
N1750  N     0.23724   0.07162   0.26686   0.12311  Uiso   1.00
H1751  H     0.21932   0.10611   0.43042   0.12311  Uiso   1.00
H1752  H     0.22270   0.04243   0.30915   0.12311  Uiso   1.00
H1753  H     0.17349   0.11102   0.45171   0.12311  Uiso   1.00
H1754  H     0.19658   0.11348   0.44242   0.12311  Uiso   1.00
H1755  H     0.16638   0.19282   0.38041   0.12311  Uiso   0.00
C1756  C     0.15202   0.21826   0.41552   0.12311  Uiso   1.00
C1757  C     0.15017   0.18329   0.34483   0.12311  Uiso   1.00
C1758  C     0.15898   0.19667   0.38029   0.12311  Uiso   1.00
C1759  C     0.17378   0.18896   0.38052   0.12311  Uiso   1.00
C1760  C     0.19582   0.21632   0.40369   0.12311  Uiso   1.00
C1761  C     0.18211   0.21779   0.40920   0.12311  Uiso   1.00
N1762  N     0.13891   0.21823   0.40182   0.12311  Uiso   1.00
N1763  N     0.13776   0.19662   0.35814   0.12311  Uiso   1.00
H1764  H     0.15568   0.23111   0.44458   0.12311  Uiso   1.00
H1765  H     0.15230   0.16743   0.31585   0.12311  Uiso   1.00
H1766  H     0.20151   0.23602   0.42329   0.12311  Uiso   1.00
H1767  H     0.17842   0.23848   0.43258   0.12311  Uiso   1.00
H1768  H     0.04138   0.06782   0.38041   0.12311  Uiso   0.00
C1769  C     0.02702   0.09326   0.41552   0.12311  Uiso   1.00
C1770  C     0.02517   0.05829   0.34483   0.12311  Uiso   1.00
C1771  C     0.03398   0.07167   0.38029   0.12311  Uiso   1.00
C1772  C     0.04878   0.06396   0.38052   0.12311  Uiso   1.00
C1773  C     0.07082   0.09132   0.40369   0.12311  Uiso   1.00
C1774  C     0.05711   0.09279   0.40920   0.12311  Uiso   1.00
N1775  N     0.01391   0.09323   0.40182   0.12311  Uiso   1.00
N1776  N     0.01276   0.07162   0.35814   0.12311  Uiso   1.00
H1777  H     0.03068   0.10611   0.44458   0.12311  Uiso   1.00
H1778  H     0.02730   0.04243   0.31585   0.12311  Uiso   1.00
H1779  H     0.07651   0.11102   0.42329   0.12311  Uiso   1.00
H1780  H     0.05342   0.11348   0.43258   0.12311  Uiso   1.00
H1781  H     0.16638   0.05718   0.25541   0.12311  Uiso   0.00
C1782  C     0.15202   0.03174   0.29052   0.12311  Uiso   1.00
C1783  C     0.15017   0.06671   0.46983   0.12311  Uiso   1.00
C1784  C     0.15898   0.05333   0.25529   0.12311  Uiso   1.00
C1785  C     0.17378   0.06104   0.25552   0.12311  Uiso   1.00
C1786  C     0.19582   0.03368   0.27869   0.12311  Uiso   1.00
C1787  C     0.18211   0.03221   0.28420   0.12311  Uiso   1.00
N1788  N     0.13891   0.03177   0.27682   0.12311  Uiso   1.00
N1789  N     0.13776   0.05338   0.48314   0.12311  Uiso   1.00
H1790  H     0.15568   0.01889   0.31958   0.12311  Uiso   1.00
H1791  H     0.15230   0.08257   0.44085   0.12311  Uiso   1.00
H1792  H     0.20151   0.01398   0.29829   0.12311  Uiso   1.00
H1793  H     0.17842   0.01152   0.30758   0.12311  Uiso   1.00
H1794  H     0.04138   0.18218   0.25541   0.12311  Uiso   0.00
C1795  C     0.02702   0.15674   0.29052   0.12311  Uiso   1.00
C1796  C     0.02517   0.19171   0.46983   0.12311  Uiso   1.00
C1797  C     0.03398   0.17833   0.25529   0.12311  Uiso   1.00
C1798  C     0.04878   0.18604   0.25552   0.12311  Uiso   1.00
C1799  C     0.07082   0.15868   0.27869   0.12311  Uiso   1.00
C1800  C     0.05711   0.15721   0.28420   0.12311  Uiso   1.00
N1801  N     0.01391   0.15677   0.27682   0.12311  Uiso   1.00
N1802  N     0.01276   0.17838   0.48314   0.12311  Uiso   1.00
H1803  H     0.03068   0.14389   0.31958   0.12311  Uiso   1.00
H1804  H     0.02730   0.20757   0.44085   0.12311  Uiso   1.00
H1805  H     0.07651   0.13898   0.29829   0.12311  Uiso   1.00
H1806  H     0.05342   0.13652   0.30758   0.12311  Uiso   1.00
H1807  H     0.08362   0.05718   0.36959   0.12311  Uiso   0.00
C1808  C     0.09798   0.03174   0.33448   0.12311  Uiso   1.00
C1809  C     0.09983   0.06671   0.40517   0.12311  Uiso   1.00
C1810  C     0.09102   0.05333   0.36971   0.12311  Uiso   1.00
C1811  C     0.07622   0.06104   0.36948   0.12311  Uiso   1.00
C1812  C     0.05418   0.03368   0.34631   0.12311  Uiso   1.00
C1813  C     0.06789   0.03221   0.34080   0.12311  Uiso   1.00
N1814  N     0.11109   0.03177   0.34818   0.12311  Uiso   1.00
N1815  N     0.11224   0.05338   0.39186   0.12311  Uiso   1.00
H1816  H     0.09432   0.01889   0.30542   0.12311  Uiso   1.00
H1817  H     0.09770   0.08257   0.43415   0.12311  Uiso   1.00
H1818  H     0.04849   0.01398   0.32671   0.12311  Uiso   1.00
H1819  H     0.07158   0.01152   0.31742   0.12311  Uiso   1.00
H1820  H     0.20862   0.18218   0.36959   0.12311  Uiso   0.00
C1821  C     0.22298   0.15674   0.33448   0.12311  Uiso   1.00
C1822  C     0.22483   0.19171   0.40517   0.12311  Uiso   1.00
C1823  C     0.21602   0.17833   0.36971   0.12311  Uiso   1.00
C1824  C     0.20122   0.18604   0.36948   0.12311  Uiso   1.00
C1825  C     0.17918   0.15868   0.34631   0.12311  Uiso   1.00
C1826  C     0.19289   0.15721   0.34080   0.12311  Uiso   1.00
N1827  N     0.23609   0.15677   0.34818   0.12311  Uiso   1.00
N1828  N     0.23724   0.17838   0.39186   0.12311  Uiso   1.00
H1829  H     0.21932   0.14389   0.30542   0.12311  Uiso   1.00
H1830  H     0.22270   0.20757   0.43415   0.12311  Uiso   1.00
H1831  H     0.17349   0.13898   0.32671   0.12311  Uiso   1.00
H1832  H     0.19658   0.13652   0.31742   0.12311  Uiso   1.00
Fe1833 Fe    0.00000   0.11461   0.31250   0.12311  Uiso   1.00
Fe1834 Fe    0.12500   0.23961   0.31250   0.12311  Uiso   1.00
Fe1835 Fe    0.00000   0.13539   0.43750   0.12311  Uiso   1.00
Fe1836 Fe    0.12500   0.01039   0.43750   0.12311  Uiso   1.00
H1837  H     0.33362   0.19282   0.49459   0.12311  Uiso   0.00
C1838  C     0.34798   0.21826   0.45948   0.12311  Uiso   1.00
C1839  C     0.34983   0.18329   0.28017   0.12311  Uiso   1.00
C1840  C     0.34102   0.19667   0.49471   0.12311  Uiso   1.00
C1841  C     0.32622   0.18896   0.49448   0.12311  Uiso   1.00
C1842  C     0.30418   0.21632   0.47131   0.12311  Uiso   1.00
C1843  C     0.31789   0.21779   0.46580   0.12311  Uiso   1.00
N1844  N     0.36109   0.21823   0.47318   0.12311  Uiso   1.00
N1845  N     0.36224   0.19662   0.26686   0.12311  Uiso   1.00
H1846  H     0.34432   0.23111   0.43042   0.12311  Uiso   1.00
H1847  H     0.34770   0.16743   0.30915   0.12311  Uiso   1.00
H1848  H     0.29849   0.23602   0.45171   0.12311  Uiso   1.00
H1849  H     0.32158   0.23848   0.44242   0.12311  Uiso   1.00
H1850  H     0.45862   0.06782   0.49459   0.12311  Uiso   0.00
C1851  C     0.47298   0.09326   0.45948   0.12311  Uiso   1.00
C1852  C     0.47483   0.05829   0.28017   0.12311  Uiso   1.00
C1853  C     0.46602   0.07167   0.49471   0.12311  Uiso   1.00
C1854  C     0.45122   0.06396   0.49448   0.12311  Uiso   1.00
C1855  C     0.42918   0.09132   0.47131   0.12311  Uiso   1.00
C1856  C     0.44289   0.09279   0.46580   0.12311  Uiso   1.00
N1857  N     0.48609   0.09323   0.47318   0.12311  Uiso   1.00
N1858  N     0.48724   0.07162   0.26686   0.12311  Uiso   1.00
H1859  H     0.46932   0.10611   0.43042   0.12311  Uiso   1.00
H1860  H     0.47270   0.04243   0.30915   0.12311  Uiso   1.00
H1861  H     0.42349   0.11102   0.45171   0.12311  Uiso   1.00
H1862  H     0.44658   0.11348   0.44242   0.12311  Uiso   1.00
H1863  H     0.41638   0.19282   0.38041   0.12311  Uiso   0.00
C1864  C     0.40202   0.21826   0.41552   0.12311  Uiso   1.00
C1865  C     0.40017   0.18329   0.34483   0.12311  Uiso   1.00
C1866  C     0.40898   0.19667   0.38029   0.12311  Uiso   1.00
C1867  C     0.42378   0.18896   0.38052   0.12311  Uiso   1.00
C1868  C     0.44582   0.21632   0.40369   0.12311  Uiso   1.00
C1869  C     0.43211   0.21779   0.40920   0.12311  Uiso   1.00
N1870  N     0.38891   0.21823   0.40182   0.12311  Uiso   1.00
N1871  N     0.38776   0.19662   0.35814   0.12311  Uiso   1.00
H1872  H     0.40568   0.23111   0.44458   0.12311  Uiso   1.00
H1873  H     0.40230   0.16743   0.31585   0.12311  Uiso   1.00
H1874  H     0.45151   0.23602   0.42329   0.12311  Uiso   1.00
H1875  H     0.42842   0.23848   0.43258   0.12311  Uiso   1.00
H1876  H     0.29138   0.06782   0.38041   0.12311  Uiso   0.00
C1877  C     0.27702   0.09326   0.41552   0.12311  Uiso   1.00
C1878  C     0.27517   0.05829   0.34483   0.12311  Uiso   1.00
C1879  C     0.28398   0.07167   0.38029   0.12311  Uiso   1.00
C1880  C     0.29878   0.06396   0.38052   0.12311  Uiso   1.00
C1881  C     0.32082   0.09132   0.40369   0.12311  Uiso   1.00
C1882  C     0.30711   0.09279   0.40920   0.12311  Uiso   1.00
N1883  N     0.26391   0.09323   0.40182   0.12311  Uiso   1.00
N1884  N     0.26276   0.07162   0.35814   0.12311  Uiso   1.00
H1885  H     0.28068   0.10611   0.44458   0.12311  Uiso   1.00
H1886  H     0.27730   0.04243   0.31585   0.12311  Uiso   1.00
H1887  H     0.32651   0.11102   0.42329   0.12311  Uiso   1.00
H1888  H     0.30342   0.11348   0.43258   0.12311  Uiso   1.00
H1889  H     0.41638   0.05718   0.25541   0.12311  Uiso   0.00
C1890  C     0.40202   0.03174   0.29052   0.12311  Uiso   1.00
C1891  C     0.40017   0.06671   0.46983   0.12311  Uiso   1.00
C1892  C     0.40898   0.05333   0.25529   0.12311  Uiso   1.00
C1893  C     0.42378   0.06104   0.25552   0.12311  Uiso   1.00
C1894  C     0.44582   0.03368   0.27869   0.12311  Uiso   1.00
C1895  C     0.43211   0.03221   0.28420   0.12311  Uiso   1.00
N1896  N     0.38891   0.03177   0.27682   0.12311  Uiso   1.00
N1897  N     0.38776   0.05338   0.48314   0.12311  Uiso   1.00
H1898  H     0.40568   0.01889   0.31958   0.12311  Uiso   1.00
H1899  H     0.40230   0.08257   0.44085   0.12311  Uiso   1.00
H1900  H     0.45151   0.01398   0.29829   0.12311  Uiso   1.00
H1901  H     0.42842   0.01152   0.30758   0.12311  Uiso   1.00
H1902  H     0.29138   0.18218   0.25541   0.12311  Uiso   0.00
C1903  C     0.27702   0.15674   0.29052   0.12311  Uiso   1.00
C1904  C     0.27517   0.19171   0.46983   0.12311  Uiso   1.00
C1905  C     0.28398   0.17833   0.25529   0.12311  Uiso   1.00
C1906  C     0.29878   0.18604   0.25552   0.12311  Uiso   1.00
C1907  C     0.32082   0.15868   0.27869   0.12311  Uiso   1.00
C1908  C     0.30711   0.15721   0.28420   0.12311  Uiso   1.00
N1909  N     0.26391   0.15677   0.27682   0.12311  Uiso   1.00
N1910  N     0.26276   0.17838   0.48314   0.12311  Uiso   1.00
H1911  H     0.28068   0.14389   0.31958   0.12311  Uiso   1.00
H1912  H     0.27730   0.20757   0.44085   0.12311  Uiso   1.00
H1913  H     0.32651   0.13898   0.29829   0.12311  Uiso   1.00
H1914  H     0.30342   0.13652   0.30758   0.12311  Uiso   1.00
H1915  H     0.33362   0.05718   0.36959   0.12311  Uiso   0.00
C1916  C     0.34798   0.03174   0.33448   0.12311  Uiso   1.00
C1917  C     0.34983   0.06671   0.40517   0.12311  Uiso   1.00
C1918  C     0.34102   0.05333   0.36971   0.12311  Uiso   1.00
C1919  C     0.32622   0.06104   0.36948   0.12311  Uiso   1.00
C1920  C     0.30418   0.03368   0.34631   0.12311  Uiso   1.00
C1921  C     0.31789   0.03221   0.34080   0.12311  Uiso   1.00
N1922  N     0.36109   0.03177   0.34818   0.12311  Uiso   1.00
N1923  N     0.36224   0.05338   0.39186   0.12311  Uiso   1.00
H1924  H     0.34432   0.01889   0.30542   0.12311  Uiso   1.00
H1925  H     0.34770   0.08257   0.43415   0.12311  Uiso   1.00
H1926  H     0.29849   0.01398   0.32671   0.12311  Uiso   1.00
H1927  H     0.32158   0.01152   0.31742   0.12311  Uiso   1.00
H1928  H     0.45862   0.18218   0.36959   0.12311  Uiso   0.00
C1929  C     0.47298   0.15674   0.33448   0.12311  Uiso   1.00
C1930  C     0.47483   0.19171   0.40517   0.12311  Uiso   1.00
C1931  C     0.46602   0.17833   0.36971   0.12311  Uiso   1.00
C1932  C     0.45122   0.18604   0.36948   0.12311  Uiso   1.00
C1933  C     0.42918   0.15868   0.34631   0.12311  Uiso   1.00
C1934  C     0.44289   0.15721   0.34080   0.12311  Uiso   1.00
N1935  N     0.48609   0.15677   0.34818   0.12311  Uiso   1.00
N1936  N     0.48724   0.17838   0.39186   0.12311  Uiso   1.00
H1937  H     0.46932   0.14389   0.30542   0.12311  Uiso   1.00
H1938  H     0.47270   0.20757   0.43415   0.12311  Uiso   1.00
H1939  H     0.42349   0.13898   0.32671   0.12311  Uiso   1.00
H1940  H     0.44658   0.13652   0.31742   0.12311  Uiso   1.00
Fe1941 Fe    0.25000   0.11461   0.31250   0.12311  Uiso   1.00
Fe1942 Fe    0.37500   0.23961   0.31250   0.12311  Uiso   1.00
Fe1943 Fe    0.25000   0.13539   0.43750   0.12311  Uiso   1.00
Fe1944 Fe    0.37500   0.01039   0.43750   0.12311  Uiso   1.00
H1945  H     0.58362   0.19282   0.49459   0.12311  Uiso   0.00
C1946  C     0.59798   0.21826   0.45948   0.12311  Uiso   1.00
C1947  C     0.59983   0.18329   0.28017   0.12311  Uiso   1.00
C1948  C     0.59102   0.19667   0.49471   0.12311  Uiso   1.00
C1949  C     0.57622   0.18896   0.49448   0.12311  Uiso   1.00
C1950  C     0.55418   0.21632   0.47131   0.12311  Uiso   1.00
C1951  C     0.56789   0.21779   0.46580   0.12311  Uiso   1.00
N1952  N     0.61109   0.21823   0.47318   0.12311  Uiso   1.00
N1953  N     0.61224   0.19662   0.26686   0.12311  Uiso   1.00
H1954  H     0.59432   0.23111   0.43042   0.12311  Uiso   1.00
H1955  H     0.59770   0.16743   0.30915   0.12311  Uiso   1.00
H1956  H     0.54849   0.23602   0.45171   0.12311  Uiso   1.00
H1957  H     0.57158   0.23848   0.44242   0.12311  Uiso   1.00
H1958  H     0.70862   0.06782   0.49459   0.12311  Uiso   0.00
C1959  C     0.72298   0.09326   0.45948   0.12311  Uiso   1.00
C1960  C     0.72483   0.05829   0.28017   0.12311  Uiso   1.00
C1961  C     0.71602   0.07167   0.49471   0.12311  Uiso   1.00
C1962  C     0.70122   0.06396   0.49448   0.12311  Uiso   1.00
C1963  C     0.67918   0.09132   0.47131   0.12311  Uiso   1.00
C1964  C     0.69289   0.09279   0.46580   0.12311  Uiso   1.00
N1965  N     0.73609   0.09323   0.47318   0.12311  Uiso   1.00
N1966  N     0.73724   0.07162   0.26686   0.12311  Uiso   1.00
H1967  H     0.71932   0.10611   0.43042   0.12311  Uiso   1.00
H1968  H     0.72270   0.04243   0.30915   0.12311  Uiso   1.00
H1969  H     0.67349   0.11102   0.45171   0.12311  Uiso   1.00
H1970  H     0.69658   0.11348   0.44242   0.12311  Uiso   1.00
H1971  H     0.66638   0.19282   0.38041   0.12311  Uiso   0.00
C1972  C     0.65202   0.21826   0.41552   0.12311  Uiso   1.00
C1973  C     0.65017   0.18329   0.34483   0.12311  Uiso   1.00
C1974  C     0.65898   0.19667   0.38029   0.12311  Uiso   1.00
C1975  C     0.67378   0.18896   0.38052   0.12311  Uiso   1.00
C1976  C     0.69582   0.21632   0.40369   0.12311  Uiso   1.00
C1977  C     0.68211   0.21779   0.40920   0.12311  Uiso   1.00
N1978  N     0.63891   0.21823   0.40182   0.12311  Uiso   1.00
N1979  N     0.63776   0.19662   0.35814   0.12311  Uiso   1.00
H1980  H     0.65568   0.23111   0.44458   0.12311  Uiso   1.00
H1981  H     0.65230   0.16743   0.31585   0.12311  Uiso   1.00
H1982  H     0.70151   0.23602   0.42329   0.12311  Uiso   1.00
H1983  H     0.67842   0.23848   0.43258   0.12311  Uiso   1.00
H1984  H     0.54138   0.06782   0.38041   0.12311  Uiso   0.00
C1985  C     0.52702   0.09326   0.41552   0.12311  Uiso   1.00
C1986  C     0.52517   0.05829   0.34483   0.12311  Uiso   1.00
C1987  C     0.53398   0.07167   0.38029   0.12311  Uiso   1.00
C1988  C     0.54878   0.06396   0.38052   0.12311  Uiso   1.00
C1989  C     0.57082   0.09132   0.40369   0.12311  Uiso   1.00
C1990  C     0.55711   0.09279   0.40920   0.12311  Uiso   1.00
N1991  N     0.51391   0.09323   0.40182   0.12311  Uiso   1.00
N1992  N     0.51276   0.07162   0.35814   0.12311  Uiso   1.00
H1993  H     0.53068   0.10611   0.44458   0.12311  Uiso   1.00
H1994  H     0.52730   0.04243   0.31585   0.12311  Uiso   1.00
H1995  H     0.57651   0.11102   0.42329   0.12311  Uiso   1.00
H1996  H     0.55342   0.11348   0.43258   0.12311  Uiso   1.00
H1997  H     0.66638   0.05718   0.25541   0.12311  Uiso   0.00
C1998  C     0.65202   0.03174   0.29052   0.12311  Uiso   1.00
C1999  C     0.65017   0.06671   0.46983   0.12311  Uiso   1.00
C2000  C     0.65898   0.05333   0.25529   0.12311  Uiso   1.00
C2001  C     0.67378   0.06104   0.25552   0.12311  Uiso   1.00
C2002  C     0.69582   0.03368   0.27869   0.12311  Uiso   1.00
C2003  C     0.68211   0.03221   0.28420   0.12311  Uiso   1.00
N2004  N     0.63891   0.03177   0.27682   0.12311  Uiso   1.00
N2005  N     0.63776   0.05338   0.48314   0.12311  Uiso   1.00
H2006  H     0.65568   0.01889   0.31958   0.12311  Uiso   1.00
H2007  H     0.65230   0.08257   0.44085   0.12311  Uiso   1.00
H2008  H     0.70151   0.01398   0.29829   0.12311  Uiso   1.00
H2009  H     0.67842   0.01152   0.30758   0.12311  Uiso   1.00
H2010  H     0.54138   0.18218   0.25541   0.12311  Uiso   0.00
C2011  C     0.52702   0.15674   0.29052   0.12311  Uiso   1.00
C2012  C     0.52517   0.19171   0.46983   0.12311  Uiso   1.00
C2013  C     0.53398   0.17833   0.25529   0.12311  Uiso   1.00
C2014  C     0.54878   0.18604   0.25552   0.12311  Uiso   1.00
C2015  C     0.57082   0.15868   0.27869   0.12311  Uiso   1.00
C2016  C     0.55711   0.15721   0.28420   0.12311  Uiso   1.00
N2017  N     0.51391   0.15677   0.27682   0.12311  Uiso   1.00
N2018  N     0.51276   0.17838   0.48314   0.12311  Uiso   1.00
H2019  H     0.53068   0.14389   0.31958   0.12311  Uiso   1.00
H2020  H     0.52730   0.20757   0.44085   0.12311  Uiso   1.00
H2021  H     0.57651   0.13898   0.29829   0.12311  Uiso   1.00
H2022  H     0.55342   0.13652   0.30758   0.12311  Uiso   1.00
H2023  H     0.58362   0.05718   0.36959   0.12311  Uiso   0.00
C2024  C     0.59798   0.03174   0.33448   0.12311  Uiso   1.00
C2025  C     0.59983   0.06671   0.40517   0.12311  Uiso   1.00
C2026  C     0.59102   0.05333   0.36971   0.12311  Uiso   1.00
C2027  C     0.57622   0.06104   0.36948   0.12311  Uiso   1.00
C2028  C     0.55418   0.03368   0.34631   0.12311  Uiso   1.00
C2029  C     0.56789   0.03221   0.34080   0.12311  Uiso   1.00
N2030  N     0.61109   0.03177   0.34818   0.12311  Uiso   1.00
N2031  N     0.61224   0.05338   0.39186   0.12311  Uiso   1.00
H2032  H     0.59432   0.01889   0.30542   0.12311  Uiso   1.00
H2033  H     0.59770   0.08257   0.43415   0.12311  Uiso   1.00
H2034  H     0.54849   0.01398   0.32671   0.12311  Uiso   1.00
H2035  H     0.57158   0.01152   0.31742   0.12311  Uiso   1.00
H2036  H     0.70862   0.18218   0.36959   0.12311  Uiso   0.00
C2037  C     0.72298   0.15674   0.33448   0.12311  Uiso   1.00
C2038  C     0.72483   0.19171   0.40517   0.12311  Uiso   1.00
C2039  C     0.71602   0.17833   0.36971   0.12311  Uiso   1.00
C2040  C     0.70122   0.18604   0.36948   0.12311  Uiso   1.00
C2041  C     0.67918   0.15868   0.34631   0.12311  Uiso   1.00
C2042  C     0.69289   0.15721   0.34080   0.12311  Uiso   1.00
N2043  N     0.73609   0.15677   0.34818   0.12311  Uiso   1.00
N2044  N     0.73724   0.17838   0.39186   0.12311  Uiso   1.00
H2045  H     0.71932   0.14389   0.30542   0.12311  Uiso   1.00
H2046  H     0.72270   0.20757   0.43415   0.12311  Uiso   1.00
H2047  H     0.67349   0.13898   0.32671   0.12311  Uiso   1.00
H2048  H     0.69658   0.13652   0.31742   0.12311  Uiso   1.00
Fe2049 Fe    0.50000   0.11461   0.31250   0.12311  Uiso   1.00
Fe2050 Fe    0.62500   0.23961   0.31250   0.12311  Uiso   1.00
Fe2051 Fe    0.50000   0.13539   0.43750   0.12311  Uiso   1.00
Fe2052 Fe    0.62500   0.01039   0.43750   0.12311  Uiso   1.00
H2053  H     0.83362   0.19282   0.49459   0.12311  Uiso   0.00
C2054  C     0.84798   0.21826   0.45948   0.12311  Uiso   1.00
C2055  C     0.84983   0.18329   0.28017   0.12311  Uiso   1.00
C2056  C     0.84102   0.19667   0.49471   0.12311  Uiso   1.00
C2057  C     0.82622   0.18896   0.49448   0.12311  Uiso   1.00
C2058  C     0.80418   0.21632   0.47131   0.12311  Uiso   1.00
C2059  C     0.81789   0.21779   0.46580   0.12311  Uiso   1.00
N2060  N     0.86109   0.21823   0.47318   0.12311  Uiso   1.00
N2061  N     0.86224   0.19662   0.26686   0.12311  Uiso   1.00
H2062  H     0.84432   0.23111   0.43042   0.12311  Uiso   1.00
H2063  H     0.84770   0.16743   0.30915   0.12311  Uiso   1.00
H2064  H     0.79849   0.23602   0.45171   0.12311  Uiso   1.00
H2065  H     0.82158   0.23848   0.44242   0.12311  Uiso   1.00
H2066  H     0.95862   0.06782   0.49459   0.12311  Uiso   0.00
C2067  C     0.97298   0.09326   0.45948   0.12311  Uiso   1.00
C2068  C     0.97483   0.05829   0.28017   0.12311  Uiso   1.00
C2069  C     0.96602   0.07167   0.49471   0.12311  Uiso   1.00
C2070  C     0.95122   0.06396   0.49448   0.12311  Uiso   1.00
C2071  C     0.92918   0.09132   0.47131   0.12311  Uiso   1.00
C2072  C     0.94289   0.09279   0.46580   0.12311  Uiso   1.00
N2073  N     0.98609   0.09323   0.47318   0.12311  Uiso   1.00
N2074  N     0.98724   0.07162   0.26686   0.12311  Uiso   1.00
H2075  H     0.96932   0.10611   0.43042   0.12311  Uiso   1.00
H2076  H     0.97270   0.04243   0.30915   0.12311  Uiso   1.00
H2077  H     0.92349   0.11102   0.45171   0.12311  Uiso   1.00
H2078  H     0.94658   0.11348   0.44242   0.12311  Uiso   1.00
H2079  H     0.91638   0.19282   0.38041   0.12311  Uiso   0.00
C2080  C     0.90202   0.21826   0.41552   0.12311  Uiso   1.00
C2081  C     0.90017   0.18329   0.34483   0.12311  Uiso   1.00
C2082  C     0.90898   0.19667   0.38029   0.12311  Uiso   1.00
C2083  C     0.92378   0.18896   0.38052   0.12311  Uiso   1.00
C2084  C     0.94582   0.21632   0.40369   0.12311  Uiso   1.00
C2085  C     0.93211   0.21779   0.40920   0.12311  Uiso   1.00
N2086  N     0.88891   0.21823   0.40182   0.12311  Uiso   1.00
N2087  N     0.88776   0.19662   0.35814   0.12311  Uiso   1.00
H2088  H     0.90568   0.23111   0.44458   0.12311  Uiso   1.00
H2089  H     0.90230   0.16743   0.31585   0.12311  Uiso   1.00
H2090  H     0.95151   0.23602   0.42329   0.12311  Uiso   1.00
H2091  H     0.92842   0.23848   0.43258   0.12311  Uiso   1.00
H2092  H     0.79138   0.06782   0.38041   0.12311  Uiso   0.00
C2093  C     0.77702   0.09326   0.41552   0.12311  Uiso   1.00
C2094  C     0.77517   0.05829   0.34483   0.12311  Uiso   1.00
C2095  C     0.78398   0.07167   0.38029   0.12311  Uiso   1.00
C2096  C     0.79878   0.06396   0.38052   0.12311  Uiso   1.00
C2097  C     0.82082   0.09132   0.40369   0.12311  Uiso   1.00
C2098  C     0.80711   0.09279   0.40920   0.12311  Uiso   1.00
N2099  N     0.76391   0.09323   0.40182   0.12311  Uiso   1.00
N2100  N     0.76276   0.07162   0.35814   0.12311  Uiso   1.00
H2101  H     0.78068   0.10611   0.44458   0.12311  Uiso   1.00
H2102  H     0.77730   0.04243   0.31585   0.12311  Uiso   1.00
H2103  H     0.82651   0.11102   0.42329   0.12311  Uiso   1.00
H2104  H     0.80342   0.11348   0.43258   0.12311  Uiso   1.00
H2105  H     0.91638   0.05718   0.25541   0.12311  Uiso   0.00
C2106  C     0.90202   0.03174   0.29052   0.12311  Uiso   1.00
C2107  C     0.90017   0.06671   0.46983   0.12311  Uiso   1.00
C2108  C     0.90898   0.05333   0.25529   0.12311  Uiso   1.00
C2109  C     0.92378   0.06104   0.25552   0.12311  Uiso   1.00
C2110  C     0.94582   0.03368   0.27869   0.12311  Uiso   1.00
C2111  C     0.93211   0.03221   0.28420   0.12311  Uiso   1.00
N2112  N     0.88891   0.03177   0.27682   0.12311  Uiso   1.00
N2113  N     0.88776   0.05338   0.48314   0.12311  Uiso   1.00
H2114  H     0.90568   0.01889   0.31958   0.12311  Uiso   1.00
H2115  H     0.90230   0.08257   0.44085   0.12311  Uiso   1.00
H2116  H     0.95151   0.01398   0.29829   0.12311  Uiso   1.00
H2117  H     0.92842   0.01152   0.30758   0.12311  Uiso   1.00
H2118  H     0.79138   0.18218   0.25541   0.12311  Uiso   0.00
C2119  C     0.77702   0.15674   0.29052   0.12311  Uiso   1.00
C2120  C     0.77517   0.19171   0.46983   0.12311  Uiso   1.00
C2121  C     0.78398   0.17833   0.25529   0.12311  Uiso   1.00
C2122  C     0.79878   0.18604   0.25552   0.12311  Uiso   1.00
C2123  C     0.82082   0.15868   0.27869   0.12311  Uiso   1.00
C2124  C     0.80711   0.15721   0.28420   0.12311  Uiso   1.00
N2125  N     0.76391   0.15677   0.27682   0.12311  Uiso   1.00
N2126  N     0.76276   0.17838   0.48314   0.12311  Uiso   1.00
H2127  H     0.78068   0.14389   0.31958   0.12311  Uiso   1.00
H2128  H     0.77730   0.20757   0.44085   0.12311  Uiso   1.00
H2129  H     0.82651   0.13898   0.29829   0.12311  Uiso   1.00
H2130  H     0.80342   0.13652   0.30758   0.12311  Uiso   1.00
H2131  H     0.83362   0.05718   0.36959   0.12311  Uiso   0.00
C2132  C     0.84798   0.03174   0.33448   0.12311  Uiso   1.00
C2133  C     0.84983   0.06671   0.40517   0.12311  Uiso   1.00
C2134  C     0.84102   0.05333   0.36971   0.12311  Uiso   1.00
C2135  C     0.82622   0.06104   0.36948   0.12311  Uiso   1.00
C2136  C     0.80418   0.03368   0.34631   0.12311  Uiso   1.00
C2137  C     0.81789   0.03221   0.34080   0.12311  Uiso   1.00
N2138  N     0.86109   0.03177   0.34818   0.12311  Uiso   1.00
N2139  N     0.86224   0.05338   0.39186   0.12311  Uiso   1.00
H2140  H     0.84432   0.01889   0.30542   0.12311  Uiso   1.00
H2141  H     0.84770   0.08257   0.43415   0.12311  Uiso   1.00
H2142  H     0.79849   0.01398   0.32671   0.12311  Uiso   1.00
H2143  H     0.82158   0.01152   0.31742   0.12311  Uiso   1.00
H2144  H     0.95862   0.18218   0.36959   0.12311  Uiso   0.00
C2145  C     0.97298   0.15674   0.33448   0.12311  Uiso   1.00
C2146  C     0.97483   0.19171   0.40517   0.12311  Uiso   1.00
C2147  C     0.96602   0.17833   0.36971   0.12311  Uiso   1.00
C2148  C     0.95122   0.18604   0.36948   0.12311  Uiso   1.00
C2149  C     0.92918   0.15868   0.34631   0.12311  Uiso   1.00
C2150  C     0.94289   0.15721   0.34080   0.12311  Uiso   1.00
N2151  N     0.98609   0.15677   0.34818   0.12311  Uiso   1.00
N2152  N     0.98724   0.17838   0.39186   0.12311  Uiso   1.00
H2153  H     0.96932   0.14389   0.30542   0.12311  Uiso   1.00
H2154  H     0.97270   0.20757   0.43415   0.12311  Uiso   1.00
H2155  H     0.92349   0.13898   0.32671   0.12311  Uiso   1.00
H2156  H     0.94658   0.13652   0.31742   0.12311  Uiso   1.00
Fe2157 Fe    0.75000   0.11461   0.31250   0.12311  Uiso   1.00
Fe2158 Fe    0.87500   0.23961   0.31250   0.12311  Uiso   1.00
Fe2159 Fe    0.75000   0.13539   0.43750   0.12311  Uiso   1.00
Fe2160 Fe    0.87500   0.01039   0.43750   0.12311  Uiso   1.00
H2161  H     0.08362   0.44282   0.49459   0.12311  Uiso   0.00
C2162  C     0.09798   0.46826   0.45948   0.12311  Uiso   1.00
C2163  C     0.09983   0.43329   0.28017   0.12311  Uiso   1.00
C2164  C     0.09102   0.44667   0.49471   0.12311  Uiso   1.00
C2165  C     0.07622   0.43896   0.49448   0.12311  Uiso   1.00
C2166  C     0.05418   0.46632   0.47131   0.12311  Uiso   1.00
C2167  C     0.06789   0.46779   0.46580   0.12311  Uiso   1.00
N2168  N     0.11109   0.46823   0.47318   0.12311  Uiso   1.00
N2169  N     0.11224   0.44662   0.26686   0.12311  Uiso   1.00
H2170  H     0.09432   0.48111   0.43042   0.12311  Uiso   1.00
H2171  H     0.09770   0.41743   0.30915   0.12311  Uiso   1.00
H2172  H     0.04849   0.48602   0.45171   0.12311  Uiso   1.00
H2173  H     0.07158   0.48848   0.44242   0.12311  Uiso   1.00
H2174  H     0.20862   0.31782   0.49459   0.12311  Uiso   0.00
C2175  C     0.22298   0.34326   0.45948   0.12311  Uiso   1.00
C2176  C     0.22483   0.30829   0.28017   0.12311  Uiso   1.00
C2177  C     0.21602   0.32167   0.49471   0.12311  Uiso   1.00
C2178  C     0.20122   0.31396   0.49448   0.12311  Uiso   1.00
C2179  C     0.17918   0.34132   0.47131   0.12311  Uiso   1.00
C2180  C     0.19289   0.34279   0.46580   0.12311  Uiso   1.00
N2181  N     0.23609   0.34323   0.47318   0.12311  Uiso   1.00
N2182  N     0.23724   0.32162   0.26686   0.12311  Uiso   1.00
H2183  H     0.21932   0.35611   0.43042   0.12311  Uiso   1.00
H2184  H     0.22270   0.29243   0.30915   0.12311  Uiso   1.00
H2185  H     0.17349   0.36102   0.45171   0.12311  Uiso   1.00
H2186  H     0.19658   0.36348   0.44242   0.12311  Uiso   1.00
H2187  H     0.16638   0.44282   0.38041   0.12311  Uiso   0.00
C2188  C     0.15202   0.46826   0.41552   0.12311  Uiso   1.00
C2189  C     0.15017   0.43329   0.34483   0.12311  Uiso   1.00
C2190  C     0.15898   0.44667   0.38029   0.12311  Uiso   1.00
C2191  C     0.17378   0.43896   0.38052   0.12311  Uiso   1.00
C2192  C     0.19582   0.46632   0.40369   0.12311  Uiso   1.00
C2193  C     0.18211   0.46779   0.40920   0.12311  Uiso   1.00
N2194  N     0.13891   0.46823   0.40182   0.12311  Uiso   1.00
N2195  N     0.13776   0.44662   0.35814   0.12311  Uiso   1.00
H2196  H     0.15568   0.48111   0.44458   0.12311  Uiso   1.00
H2197  H     0.15230   0.41743   0.31585   0.12311  Uiso   1.00
H2198  H     0.20151   0.48602   0.42329   0.12311  Uiso   1.00
H2199  H     0.17842   0.48848   0.43258   0.12311  Uiso   1.00
H2200  H     0.04138   0.31782   0.38041   0.12311  Uiso   0.00
C2201  C     0.02702   0.34326   0.41552   0.12311  Uiso   1.00
C2202  C     0.02517   0.30829   0.34483   0.12311  Uiso   1.00
C2203  C     0.03398   0.32167   0.38029   0.12311  Uiso   1.00
C2204  C     0.04878   0.31396   0.38052   0.12311  Uiso   1.00
C2205  C     0.07082   0.34132   0.40369   0.12311  Uiso   1.00
C2206  C     0.05711   0.34279   0.40920   0.12311  Uiso   1.00
N2207  N     0.01391   0.34323   0.40182   0.12311  Uiso   1.00
N2208  N     0.01276   0.32162   0.35814   0.12311  Uiso   1.00
H2209  H     0.03068   0.35611   0.44458   0.12311  Uiso   1.00
H2210  H     0.02730   0.29243   0.31585   0.12311  Uiso   1.00
H2211  H     0.07651   0.36102   0.42329   0.12311  Uiso   1.00
H2212  H     0.05342   0.36348   0.43258   0.12311  Uiso   1.00
H2213  H     0.16638   0.30718   0.25541   0.12311  Uiso   0.00
C2214  C     0.15202   0.28174   0.29052   0.12311  Uiso   1.00
C2215  C     0.15017   0.31671   0.46983   0.12311  Uiso   1.00
C2216  C     0.15898   0.30333   0.25529   0.12311  Uiso   1.00
C2217  C     0.17378   0.31104   0.25552   0.12311  Uiso   1.00
C2218  C     0.19582   0.28368   0.27869   0.12311  Uiso   1.00
C2219  C     0.18211   0.28221   0.28420   0.12311  Uiso   1.00
N2220  N     0.13891   0.28177   0.27682   0.12311  Uiso   1.00
N2221  N     0.13776   0.30338   0.48314   0.12311  Uiso   1.00
H2222  H     0.15568   0.26889   0.31958   0.12311  Uiso   1.00
H2223  H     0.15230   0.33257   0.44085   0.12311  Uiso   1.00
H2224  H     0.20151   0.26398   0.29829   0.12311  Uiso   1.00
H2225  H     0.17842   0.26152   0.30758   0.12311  Uiso   1.00
H2226  H     0.04138   0.43218   0.25541   0.12311  Uiso   0.00
C2227  C     0.02702   0.40674   0.29052   0.12311  Uiso   1.00
C2228  C     0.02517   0.44171   0.46983   0.12311  Uiso   1.00
C2229  C     0.03398   0.42833   0.25529   0.12311  Uiso   1.00
C2230  C     0.04878   0.43604   0.25552   0.12311  Uiso   1.00
C2231  C     0.07082   0.40868   0.27869   0.12311  Uiso   1.00
C2232  C     0.05711   0.40721   0.28420   0.12311  Uiso   1.00
N2233  N     0.01391   0.40677   0.27682   0.12311  Uiso   1.00
N2234  N     0.01276   0.42838   0.48314   0.12311  Uiso   1.00
H2235  H     0.03068   0.39389   0.31958   0.12311  Uiso   1.00
H2236  H     0.02730   0.45757   0.44085   0.12311  Uiso   1.00
H2237  H     0.07651   0.38898   0.29829   0.12311  Uiso   1.00
H2238  H     0.05342   0.38652   0.30758   0.12311  Uiso   1.00
H2239  H     0.08362   0.30718   0.36959   0.12311  Uiso   0.00
C2240  C     0.09798   0.28174   0.33448   0.12311  Uiso   1.00
C2241  C     0.09983   0.31671   0.40517   0.12311  Uiso   1.00
C2242  C     0.09102   0.30333   0.36971   0.12311  Uiso   1.00
C2243  C     0.07622   0.31104   0.36948   0.12311  Uiso   1.00
C2244  C     0.05418   0.28368   0.34631   0.12311  Uiso   1.00
C2245  C     0.06789   0.28221   0.34080   0.12311  Uiso   1.00
N2246  N     0.11109   0.28177   0.34818   0.12311  Uiso   1.00
N2247  N     0.11224   0.30338   0.39186   0.12311  Uiso   1.00
H2248  H     0.09432   0.26889   0.30542   0.12311  Uiso   1.00
H2249  H     0.09770   0.33257   0.43415   0.12311  Uiso   1.00
H2250  H     0.04849   0.26398   0.32671   0.12311  Uiso   1.00
H2251  H     0.07158   0.26152   0.31742   0.12311  Uiso   1.00
H2252  H     0.20862   0.43218   0.36959   0.12311  Uiso   0.00
C2253  C     0.22298   0.40674   0.33448   0.12311  Uiso   1.00
C2254  C     0.22483   0.44171   0.40517   0.12311  Uiso   1.00
C2255  C     0.21602   0.42833   0.36971   0.12311  Uiso   1.00
C2256  C     0.20122   0.43604   0.36948   0.12311  Uiso   1.00
C2257  C     0.17918   0.40868   0.34631   0.12311  Uiso   1.00
C2258  C     0.19289   0.40721   0.34080   0.12311  Uiso   1.00
N2259  N     0.23609   0.40677   0.34818   0.12311  Uiso   1.00
N2260  N     0.23724   0.42838   0.39186   0.12311  Uiso   1.00
H2261  H     0.21932   0.39389   0.30542   0.12311  Uiso   1.00
H2262  H     0.22270   0.45757   0.43415   0.12311  Uiso   1.00
H2263  H     0.17349   0.38898   0.32671   0.12311  Uiso   1.00
H2264  H     0.19658   0.38652   0.31742   0.12311  Uiso   1.00
Fe2265 Fe    0.00000   0.36461   0.31250   0.12311  Uiso   1.00
Fe2266 Fe    0.12500   0.48961   0.31250   0.12311  Uiso   1.00
Fe2267 Fe    0.00000   0.38539   0.43750   0.12311  Uiso   1.00
Fe2268 Fe    0.12500   0.26039   0.43750   0.12311  Uiso   1.00
H2269  H     0.33362   0.44282   0.49459   0.12311  Uiso   0.00
C2270  C     0.34798   0.46826   0.45948   0.12311  Uiso   1.00
C2271  C     0.34983   0.43329   0.28017   0.12311  Uiso   1.00
C2272  C     0.34102   0.44667   0.49471   0.12311  Uiso   1.00
C2273  C     0.32622   0.43896   0.49448   0.12311  Uiso   1.00
C2274  C     0.30418   0.46632   0.47131   0.12311  Uiso   1.00
C2275  C     0.31789   0.46779   0.46580   0.12311  Uiso   1.00
N2276  N     0.36109   0.46823   0.47318   0.12311  Uiso   1.00
N2277  N     0.36224   0.44662   0.26686   0.12311  Uiso   1.00
H2278  H     0.34432   0.48111   0.43042   0.12311  Uiso   1.00
H2279  H     0.34770   0.41743   0.30915   0.12311  Uiso   1.00
H2280  H     0.29849   0.48602   0.45171   0.12311  Uiso   1.00
H2281  H     0.32158   0.48848   0.44242   0.12311  Uiso   1.00
H2282  H     0.45862   0.31782   0.49459   0.12311  Uiso   0.00
C2283  C     0.47298   0.34326   0.45948   0.12311  Uiso   1.00
C2284  C     0.47483   0.30829   0.28017   0.12311  Uiso   1.00
C2285  C     0.46602   0.32167   0.49471   0.12311  Uiso   1.00
C2286  C     0.45122   0.31396   0.49448   0.12311  Uiso   1.00
C2287  C     0.42918   0.34132   0.47131   0.12311  Uiso   1.00
C2288  C     0.44289   0.34279   0.46580   0.12311  Uiso   1.00
N2289  N     0.48609   0.34323   0.47318   0.12311  Uiso   1.00
N2290  N     0.48724   0.32162   0.26686   0.12311  Uiso   1.00
H2291  H     0.46932   0.35611   0.43042   0.12311  Uiso   1.00
H2292  H     0.47270   0.29243   0.30915   0.12311  Uiso   1.00
H2293  H     0.42349   0.36102   0.45171   0.12311  Uiso   1.00
H2294  H     0.44658   0.36348   0.44242   0.12311  Uiso   1.00
H2295  H     0.41638   0.44282   0.38041   0.12311  Uiso   0.00
C2296  C     0.40202   0.46826   0.41552   0.12311  Uiso   1.00
C2297  C     0.40017   0.43329   0.34483   0.12311  Uiso   1.00
C2298  C     0.40898   0.44667   0.38029   0.12311  Uiso   1.00
C2299  C     0.42378   0.43896   0.38052   0.12311  Uiso   1.00
C2300  C     0.44582   0.46632   0.40369   0.12311  Uiso   1.00
C2301  C     0.43211   0.46779   0.40920   0.12311  Uiso   1.00
N2302  N     0.38891   0.46823   0.40182   0.12311  Uiso   1.00
N2303  N     0.38776   0.44662   0.35814   0.12311  Uiso   1.00
H2304  H     0.40568   0.48111   0.44458   0.12311  Uiso   1.00
H2305  H     0.40230   0.41743   0.31585   0.12311  Uiso   1.00
H2306  H     0.45151   0.48602   0.42329   0.12311  Uiso   1.00
H2307  H     0.42842   0.48848   0.43258   0.12311  Uiso   1.00
H2308  H     0.29138   0.31782   0.38041   0.12311  Uiso   0.00
C2309  C     0.27702   0.34326   0.41552   0.12311  Uiso   1.00
C2310  C     0.27517   0.30829   0.34483   0.12311  Uiso   1.00
C2311  C     0.28398   0.32167   0.38029   0.12311  Uiso   1.00
C2312  C     0.29878   0.31396   0.38052   0.12311  Uiso   1.00
C2313  C     0.32082   0.34132   0.40369   0.12311  Uiso   1.00
C2314  C     0.30711   0.34279   0.40920   0.12311  Uiso   1.00
N2315  N     0.26391   0.34323   0.40182   0.12311  Uiso   1.00
N2316  N     0.26276   0.32162   0.35814   0.12311  Uiso   1.00
H2317  H     0.28068   0.35611   0.44458   0.12311  Uiso   1.00
H2318  H     0.27730   0.29243   0.31585   0.12311  Uiso   1.00
H2319  H     0.32651   0.36102   0.42329   0.12311  Uiso   1.00
H2320  H     0.30342   0.36348   0.43258   0.12311  Uiso   1.00
H2321  H     0.41638   0.30718   0.25541   0.12311  Uiso   0.00
C2322  C     0.40202   0.28174   0.29052   0.12311  Uiso   1.00
C2323  C     0.40017   0.31671   0.46983   0.12311  Uiso   1.00
C2324  C     0.40898   0.30333   0.25529   0.12311  Uiso   1.00
C2325  C     0.42378   0.31104   0.25552   0.12311  Uiso   1.00
C2326  C     0.44582   0.28368   0.27869   0.12311  Uiso   1.00
C2327  C     0.43211   0.28221   0.28420   0.12311  Uiso   1.00
N2328  N     0.38891   0.28177   0.27682   0.12311  Uiso   1.00
N2329  N     0.38776   0.30338   0.48314   0.12311  Uiso   1.00
H2330  H     0.40568   0.26889   0.31958   0.12311  Uiso   1.00
H2331  H     0.40230   0.33257   0.44085   0.12311  Uiso   1.00
H2332  H     0.45151   0.26398   0.29829   0.12311  Uiso   1.00
H2333  H     0.42842   0.26152   0.30758   0.12311  Uiso   1.00
H2334  H     0.29138   0.43218   0.25541   0.12311  Uiso   0.00
C2335  C     0.27702   0.40674   0.29052   0.12311  Uiso   1.00
C2336  C     0.27517   0.44171   0.46983   0.12311  Uiso   1.00
C2337  C     0.28398   0.42833   0.25529   0.12311  Uiso   1.00
C2338  C     0.29878   0.43604   0.25552   0.12311  Uiso   1.00
C2339  C     0.32082   0.40868   0.27869   0.12311  Uiso   1.00
C2340  C     0.30711   0.40721   0.28420   0.12311  Uiso   1.00
N2341  N     0.26391   0.40677   0.27682   0.12311  Uiso   1.00
N2342  N     0.26276   0.42838   0.48314   0.12311  Uiso   1.00
H2343  H     0.28068   0.39389   0.31958   0.12311  Uiso   1.00
H2344  H     0.27730   0.45757   0.44085   0.12311  Uiso   1.00
H2345  H     0.32651   0.38898   0.29829   0.12311  Uiso   1.00
H2346  H     0.30342   0.38652   0.30758   0.12311  Uiso   1.00
H2347  H     0.33362   0.30718   0.36959   0.12311  Uiso   0.00
C2348  C     0.34798   0.28174   0.33448   0.12311  Uiso   1.00
C2349  C     0.34983   0.31671   0.40517   0.12311  Uiso   1.00
C2350  C     0.34102   0.30333   0.36971   0.12311  Uiso   1.00
C2351  C     0.32622   0.31104   0.36948   0.12311  Uiso   1.00
C2352  C     0.30418   0.28368   0.34631   0.12311  Uiso   1.00
C2353  C     0.31789   0.28221   0.34080   0.12311  Uiso   1.00
N2354  N     0.36109   0.28177   0.34818   0.12311  Uiso   1.00
N2355  N     0.36224   0.30338   0.39186   0.12311  Uiso   1.00
H2356  H     0.34432   0.26889   0.30542   0.12311  Uiso   1.00
H2357  H     0.34770   0.33257   0.43415   0.12311  Uiso   1.00
H2358  H     0.29849   0.26398   0.32671   0.12311  Uiso   1.00
H2359  H     0.32158   0.26152   0.31742   0.12311  Uiso   1.00
H2360  H     0.45862   0.43218   0.36959   0.12311  Uiso   0.00
C2361  C     0.47298   0.40674   0.33448   0.12311  Uiso   1.00
C2362  C     0.47483   0.44171   0.40517   0.12311  Uiso   1.00
C2363  C     0.46602   0.42833   0.36971   0.12311  Uiso   1.00
C2364  C     0.45122   0.43604   0.36948   0.12311  Uiso   1.00
C2365  C     0.42918   0.40868   0.34631   0.12311  Uiso   1.00
C2366  C     0.44289   0.40721   0.34080   0.12311  Uiso   1.00
N2367  N     0.48609   0.40677   0.34818   0.12311  Uiso   1.00
N2368  N     0.48724   0.42838   0.39186   0.12311  Uiso   1.00
H2369  H     0.46932   0.39389   0.30542   0.12311  Uiso   1.00
H2370  H     0.47270   0.45757   0.43415   0.12311  Uiso   1.00
H2371  H     0.42349   0.38898   0.32671   0.12311  Uiso   1.00
H2372  H     0.44658   0.38652   0.31742   0.12311  Uiso   1.00
Fe2373 Fe    0.25000   0.36461   0.31250   0.12311  Uiso   1.00
Fe2374 Fe    0.37500   0.48961   0.31250   0.12311  Uiso   1.00
Fe2375 Fe    0.25000   0.38539   0.43750   0.12311  Uiso   1.00
Fe2376 Fe    0.37500   0.26039   0.43750   0.12311  Uiso   1.00
H2377  H     0.58362   0.44282   0.49459   0.12311  Uiso   0.00
C2378  C     0.59798   0.46826   0.45948   0.12311  Uiso   1.00
C2379  C     0.59983   0.43329   0.28017   0.12311  Uiso   1.00
C2380  C     0.59102   0.44667   0.49471   0.12311  Uiso   1.00
C2381  C     0.57622   0.43896   0.49448   0.12311  Uiso   1.00
C2382  C     0.55418   0.46632   0.47131   0.12311  Uiso   1.00
C2383  C     0.56789   0.46779   0.46580   0.12311  Uiso   1.00
N2384  N     0.61109   0.46823   0.47318   0.12311  Uiso   1.00
N2385  N     0.61224   0.44662   0.26686   0.12311  Uiso   1.00
H2386  H     0.59432   0.48111   0.43042   0.12311  Uiso   1.00
H2387  H     0.59770   0.41743   0.30915   0.12311  Uiso   1.00
H2388  H     0.54849   0.48602   0.45171   0.12311  Uiso   1.00
H2389  H     0.57158   0.48848   0.44242   0.12311  Uiso   1.00
H2390  H     0.70862   0.31782   0.49459   0.12311  Uiso   0.00
C2391  C     0.72298   0.34326   0.45948   0.12311  Uiso   1.00
C2392  C     0.72483   0.30829   0.28017   0.12311  Uiso   1.00
C2393  C     0.71602   0.32167   0.49471   0.12311  Uiso   1.00
C2394  C     0.70122   0.31396   0.49448   0.12311  Uiso   1.00
C2395  C     0.67918   0.34132   0.47131   0.12311  Uiso   1.00
C2396  C     0.69289   0.34279   0.46580   0.12311  Uiso   1.00
N2397  N     0.73609   0.34323   0.47318   0.12311  Uiso   1.00
N2398  N     0.73724   0.32162   0.26686   0.12311  Uiso   1.00
H2399  H     0.71932   0.35611   0.43042   0.12311  Uiso   1.00
H2400  H     0.72270   0.29243   0.30915   0.12311  Uiso   1.00
H2401  H     0.67349   0.36102   0.45171   0.12311  Uiso   1.00
H2402  H     0.69658   0.36348   0.44242   0.12311  Uiso   1.00
H2403  H     0.66638   0.44282   0.38041   0.12311  Uiso   0.00
C2404  C     0.65202   0.46826   0.41552   0.12311  Uiso   1.00
C2405  C     0.65017   0.43329   0.34483   0.12311  Uiso   1.00
C2406  C     0.65898   0.44667   0.38029   0.12311  Uiso   1.00
C2407  C     0.67378   0.43896   0.38052   0.12311  Uiso   1.00
C2408  C     0.69582   0.46632   0.40369   0.12311  Uiso   1.00
C2409  C     0.68211   0.46779   0.40920   0.12311  Uiso   1.00
N2410  N     0.63891   0.46823   0.40182   0.12311  Uiso   1.00
N2411  N     0.63776   0.44662   0.35814   0.12311  Uiso   1.00
H2412  H     0.65568   0.48111   0.44458   0.12311  Uiso   1.00
H2413  H     0.65230   0.41743   0.31585   0.12311  Uiso   1.00
H2414  H     0.70151   0.48602   0.42329   0.12311  Uiso   1.00
H2415  H     0.67842   0.48848   0.43258   0.12311  Uiso   1.00
H2416  H     0.54138   0.31782   0.38041   0.12311  Uiso   0.00
C2417  C     0.52702   0.34326   0.41552   0.12311  Uiso   1.00
C2418  C     0.52517   0.30829   0.34483   0.12311  Uiso   1.00
C2419  C     0.53398   0.32167   0.38029   0.12311  Uiso   1.00
C2420  C     0.54878   0.31396   0.38052   0.12311  Uiso   1.00
C2421  C     0.57082   0.34132   0.40369   0.12311  Uiso   1.00
C2422  C     0.55711   0.34279   0.40920   0.12311  Uiso   1.00
N2423  N     0.51391   0.34323   0.40182   0.12311  Uiso   1.00
N2424  N     0.51276   0.32162   0.35814   0.12311  Uiso   1.00
H2425  H     0.53068   0.35611   0.44458   0.12311  Uiso   1.00
H2426  H     0.52730   0.29243   0.31585   0.12311  Uiso   1.00
H2427  H     0.57651   0.36102   0.42329   0.12311  Uiso   1.00
H2428  H     0.55342   0.36348   0.43258   0.12311  Uiso   1.00
H2429  H     0.66638   0.30718   0.25541   0.12311  Uiso   0.00
C2430  C     0.65202   0.28174   0.29052   0.12311  Uiso   1.00
C2431  C     0.65017   0.31671   0.46983   0.12311  Uiso   1.00
C2432  C     0.65898   0.30333   0.25529   0.12311  Uiso   1.00
C2433  C     0.67378   0.31104   0.25552   0.12311  Uiso   1.00
C2434  C     0.69582   0.28368   0.27869   0.12311  Uiso   1.00
C2435  C     0.68211   0.28221   0.28420   0.12311  Uiso   1.00
N2436  N     0.63891   0.28177   0.27682   0.12311  Uiso   1.00
N2437  N     0.63776   0.30338   0.48314   0.12311  Uiso   1.00
H2438  H     0.65568   0.26889   0.31958   0.12311  Uiso   1.00
H2439  H     0.65230   0.33257   0.44085   0.12311  Uiso   1.00
H2440  H     0.70151   0.26398   0.29829   0.12311  Uiso   1.00
H2441  H     0.67842   0.26152   0.30758   0.12311  Uiso   1.00
H2442  H     0.54138   0.43218   0.25541   0.12311  Uiso   0.00
C2443  C     0.52702   0.40674   0.29052   0.12311  Uiso   1.00
C2444  C     0.52517   0.44171   0.46983   0.12311  Uiso   1.00
C2445  C     0.53398   0.42833   0.25529   0.12311  Uiso   1.00
C2446  C     0.54878   0.43604   0.25552   0.12311  Uiso   1.00
C2447  C     0.57082   0.40868   0.27869   0.12311  Uiso   1.00
C2448  C     0.55711   0.40721   0.28420   0.12311  Uiso   1.00
N2449  N     0.51391   0.40677   0.27682   0.12311  Uiso   1.00
N2450  N     0.51276   0.42838   0.48314   0.12311  Uiso   1.00
H2451  H     0.53068   0.39389   0.31958   0.12311  Uiso   1.00
H2452  H     0.52730   0.45757   0.44085   0.12311  Uiso   1.00
H2453  H     0.57651   0.38898   0.29829   0.12311  Uiso   1.00
H2454  H     0.55342   0.38652   0.30758   0.12311  Uiso   1.00
H2455  H     0.58362   0.30718   0.36959   0.12311  Uiso   0.00
C2456  C     0.59798   0.28174   0.33448   0.12311  Uiso   1.00
C2457  C     0.59983   0.31671   0.40517   0.12311  Uiso   1.00
C2458  C     0.59102   0.30333   0.36971   0.12311  Uiso   1.00
C2459  C     0.57622   0.31104   0.36948   0.12311  Uiso   1.00
C2460  C     0.55418   0.28368   0.34631   0.12311  Uiso   1.00
C2461  C     0.56789   0.28221   0.34080   0.12311  Uiso   1.00
N2462  N     0.61109   0.28177   0.34818   0.12311  Uiso   1.00
N2463  N     0.61224   0.30338   0.39186   0.12311  Uiso   1.00
H2464  H     0.59432   0.26889   0.30542   0.12311  Uiso   1.00
H2465  H     0.59770   0.33257   0.43415   0.12311  Uiso   1.00
H2466  H     0.54849   0.26398   0.32671   0.12311  Uiso   1.00
H2467  H     0.57158   0.26152   0.31742   0.12311  Uiso   1.00
H2468  H     0.70862   0.43218   0.36959   0.12311  Uiso   0.00
C2469  C     0.72298   0.40674   0.33448   0.12311  Uiso   1.00
C2470  C     0.72483   0.44171   0.40517   0.12311  Uiso   1.00
C2471  C     0.71602   0.42833   0.36971   0.12311  Uiso   1.00
C2472  C     0.70122   0.43604   0.36948   0.12311  Uiso   1.00
C2473  C     0.67918   0.40868   0.34631   0.12311  Uiso   1.00
C2474  C     0.69289   0.40721   0.34080   0.12311  Uiso   1.00
N2475  N     0.73609   0.40677   0.34818   0.12311  Uiso   1.00
N2476  N     0.73724   0.42838   0.39186   0.12311  Uiso   1.00
H2477  H     0.71932   0.39389   0.30542   0.12311  Uiso   1.00
H2478  H     0.72270   0.45757   0.43415   0.12311  Uiso   1.00
H2479  H     0.67349   0.38898   0.32671   0.12311  Uiso   1.00
H2480  H     0.69658   0.38652   0.31742   0.12311  Uiso   1.00
Fe2481 Fe    0.50000   0.36461   0.31250   0.12311  Uiso   1.00
Fe2482 Fe    0.62500   0.48961   0.31250   0.12311  Uiso   1.00
Fe2483 Fe    0.50000   0.38539   0.43750   0.12311  Uiso   1.00
Fe2484 Fe    0.62500   0.26039   0.43750   0.12311  Uiso   1.00
H2485  H     0.83362   0.44282   0.49459   0.12311  Uiso   0.00
C2486  C     0.84798   0.46826   0.45948   0.12311  Uiso   1.00
C2487  C     0.84983   0.43329   0.28017   0.12311  Uiso   1.00
C2488  C     0.84102   0.44667   0.49471   0.12311  Uiso   1.00
C2489  C     0.82622   0.43896   0.49448   0.12311  Uiso   1.00
C2490  C     0.80418   0.46632   0.47131   0.12311  Uiso   1.00
C2491  C     0.81789   0.46779   0.46580   0.12311  Uiso   1.00
N2492  N     0.86109   0.46823   0.47318   0.12311  Uiso   1.00
N2493  N     0.86224   0.44662   0.26686   0.12311  Uiso   1.00
H2494  H     0.84432   0.48111   0.43042   0.12311  Uiso   1.00
H2495  H     0.84770   0.41743   0.30915   0.12311  Uiso   1.00
H2496  H     0.79849   0.48602   0.45171   0.12311  Uiso   1.00
H2497  H     0.82158   0.48848   0.44242   0.12311  Uiso   1.00
H2498  H     0.95862   0.31782   0.49459   0.12311  Uiso   0.00
C2499  C     0.97298   0.34326   0.45948   0.12311  Uiso   1.00
C2500  C     0.97483   0.30829   0.28017   0.12311  Uiso   1.00
C2501  C     0.96602   0.32167   0.49471   0.12311  Uiso   1.00
C2502  C     0.95122   0.31396   0.49448   0.12311  Uiso   1.00
C2503  C     0.92918   0.34132   0.47131   0.12311  Uiso   1.00
C2504  C     0.94289   0.34279   0.46580   0.12311  Uiso   1.00
N2505  N     0.98609   0.34323   0.47318   0.12311  Uiso   1.00
N2506  N     0.98724   0.32162   0.26686   0.12311  Uiso   1.00
H2507  H     0.96932   0.35611   0.43042   0.12311  Uiso   1.00
H2508  H     0.97270   0.29243   0.30915   0.12311  Uiso   1.00
H2509  H     0.92349   0.36102   0.45171   0.12311  Uiso   1.00
H2510  H     0.94658   0.36348   0.44242   0.12311  Uiso   1.00
H2511  H     0.91638   0.44282   0.38041   0.12311  Uiso   0.00
C2512  C     0.90202   0.46826   0.41552   0.12311  Uiso   1.00
C2513  C     0.90017   0.43329   0.34483   0.12311  Uiso   1.00
C2514  C     0.90898   0.44667   0.38029   0.12311  Uiso   1.00
C2515  C     0.92378   0.43896   0.38052   0.12311  Uiso   1.00
C2516  C     0.94582   0.46632   0.40369   0.12311  Uiso   1.00
C2517  C     0.93211   0.46779   0.40920   0.12311  Uiso   1.00
N2518  N     0.88891   0.46823   0.40182   0.12311  Uiso   1.00
N2519  N     0.88776   0.44662   0.35814   0.12311  Uiso   1.00
H2520  H     0.90568   0.48111   0.44458   0.12311  Uiso   1.00
H2521  H     0.90230   0.41743   0.31585   0.12311  Uiso   1.00
H2522  H     0.95151   0.48602   0.42329   0.12311  Uiso   1.00
H2523  H     0.92842   0.48848   0.43258   0.12311  Uiso   1.00
H2524  H     0.79138   0.31782   0.38041   0.12311  Uiso   0.00
C2525  C     0.77702   0.34326   0.41552   0.12311  Uiso   1.00
C2526  C     0.77517   0.30829   0.34483   0.12311  Uiso   1.00
C2527  C     0.78398   0.32167   0.38029   0.12311  Uiso   1.00
C2528  C     0.79878   0.31396   0.38052   0.12311  Uiso   1.00
C2529  C     0.82082   0.34132   0.40369   0.12311  Uiso   1.00
C2530  C     0.80711   0.34279   0.40920   0.12311  Uiso   1.00
N2531  N     0.76391   0.34323   0.40182   0.12311  Uiso   1.00
N2532  N     0.76276   0.32162   0.35814   0.12311  Uiso   1.00
H2533  H     0.78068   0.35611   0.44458   0.12311  Uiso   1.00
H2534  H     0.77730   0.29243   0.31585   0.12311  Uiso   1.00
H2535  H     0.82651   0.36102   0.42329   0.12311  Uiso   1.00
H2536  H     0.80342   0.36348   0.43258   0.12311  Uiso   1.00
H2537  H     0.91638   0.30718   0.25541   0.12311  Uiso   0.00
C2538  C     0.90202   0.28174   0.29052   0.12311  Uiso   1.00
C2539  C     0.90017   0.31671   0.46983   0.12311  Uiso   1.00
C2540  C     0.90898   0.30333   0.25529   0.12311  Uiso   1.00
C2541  C     0.92378   0.31104   0.25552   0.12311  Uiso   1.00
C2542  C     0.94582   0.28368   0.27869   0.12311  Uiso   1.00
C2543  C     0.93211   0.28221   0.28420   0.12311  Uiso   1.00
N2544  N     0.88891   0.28177   0.27682   0.12311  Uiso   1.00
N2545  N     0.88776   0.30338   0.48314   0.12311  Uiso   1.00
H2546  H     0.90568   0.26889   0.31958   0.12311  Uiso   1.00
H2547  H     0.90230   0.33257   0.44085   0.12311  Uiso   1.00
H2548  H     0.95151   0.26398   0.29829   0.12311  Uiso   1.00
H2549  H     0.92842   0.26152   0.30758   0.12311  Uiso   1.00
H2550  H     0.79138   0.43218   0.25541   0.12311  Uiso   0.00
C2551  C     0.77702   0.40674   0.29052   0.12311  Uiso   1.00
C2552  C     0.77517   0.44171   0.46983   0.12311  Uiso   1.00
C2553  C     0.78398   0.42833   0.25529   0.12311  Uiso   1.00
C2554  C     0.79878   0.43604   0.25552   0.12311  Uiso   1.00
C2555  C     0.82082   0.40868   0.27869   0.12311  Uiso   1.00
C2556  C     0.80711   0.40721   0.28420   0.12311  Uiso   1.00
N2557  N     0.76391   0.40677   0.27682   0.12311  Uiso   1.00
N2558  N     0.76276   0.42838   0.48314   0.12311  Uiso   1.00
H2559  H     0.78068   0.39389   0.31958   0.12311  Uiso   1.00
H2560  H     0.77730   0.45757   0.44085   0.12311  Uiso   1.00
H2561  H     0.82651   0.38898   0.29829   0.12311  Uiso   1.00
H2562  H     0.80342   0.38652   0.30758   0.12311  Uiso   1.00
H2563  H     0.83362   0.30718   0.36959   0.12311  Uiso   0.00
C2564  C     0.84798   0.28174   0.33448   0.12311  Uiso   1.00
C2565  C     0.84983   0.31671   0.40517   0.12311  Uiso   1.00
C2566  C     0.84102   0.30333   0.36971   0.12311  Uiso   1.00
C2567  C     0.82622   0.31104   0.36948   0.12311  Uiso   1.00
C2568  C     0.80418   0.28368   0.34631   0.12311  Uiso   1.00
C2569  C     0.81789   0.28221   0.34080   0.12311  Uiso   1.00
N2570  N     0.86109   0.28177   0.34818   0.12311  Uiso   1.00
N2571  N     0.86224   0.30338   0.39186   0.12311  Uiso   1.00
H2572  H     0.84432   0.26889   0.30542   0.12311  Uiso   1.00
H2573  H     0.84770   0.33257   0.43415   0.12311  Uiso   1.00
H2574  H     0.79849   0.26398   0.32671   0.12311  Uiso   1.00
H2575  H     0.82158   0.26152   0.31742   0.12311  Uiso   1.00
H2576  H     0.95862   0.43218   0.36959   0.12311  Uiso   0.00
C2577  C     0.97298   0.40674   0.33448   0.12311  Uiso   1.00
C2578  C     0.97483   0.44171   0.40517   0.12311  Uiso   1.00
C2579  C     0.96602   0.42833   0.36971   0.12311  Uiso   1.00
C2580  C     0.95122   0.43604   0.36948   0.12311  Uiso   1.00
C2581  C     0.92918   0.40868   0.34631   0.12311  Uiso   1.00
C2582  C     0.94289   0.40721   0.34080   0.12311  Uiso   1.00
N2583  N     0.98609   0.40677   0.34818   0.12311  Uiso   1.00
N2584  N     0.98724   0.42838   0.39186   0.12311  Uiso   1.00
H2585  H     0.96932   0.39389   0.30542   0.12311  Uiso   1.00
H2586  H     0.97270   0.45757   0.43415   0.12311  Uiso   1.00
H2587  H     0.92349   0.38898   0.32671   0.12311  Uiso   1.00
H2588  H     0.94658   0.38652   0.31742   0.12311  Uiso   1.00
Fe2589 Fe    0.75000   0.36461   0.31250   0.12311  Uiso   1.00
Fe2590 Fe    0.87500   0.48961   0.31250   0.12311  Uiso   1.00
Fe2591 Fe    0.75000   0.38539   0.43750   0.12311  Uiso   1.00
Fe2592 Fe    0.87500   0.26039   0.43750   0.12311  Uiso   1.00
H2593  H     0.08362   0.69282   0.49459   0.12311  Uiso   0.00
C2594  C     0.09798   0.71826   0.45948   0.12311  Uiso   1.00
C2595  C     0.09983   0.68329   0.28017   0.12311  Uiso   1.00
C2596  C     0.09102   0.69667   0.49471   0.12311  Uiso   1.00
C2597  C     0.07622   0.68896   0.49448   0.12311  Uiso   1.00
C2598  C     0.05418   0.71632   0.47131   0.12311  Uiso   1.00
C2599  C     0.06789   0.71779   0.46580   0.12311  Uiso   1.00
N2600  N     0.11109   0.71823   0.47318   0.12311  Uiso   1.00
N2601  N     0.11224   0.69662   0.26686   0.12311  Uiso   1.00
H2602  H     0.09432   0.73111   0.43042   0.12311  Uiso   1.00
H2603  H     0.09770   0.66743   0.30915   0.12311  Uiso   1.00
H2604  H     0.04849   0.73602   0.45171   0.12311  Uiso   1.00
H2605  H     0.07158   0.73848   0.44242   0.12311  Uiso   1.00
H2606  H     0.20862   0.56782   0.49459   0.12311  Uiso   0.00
C2607  C     0.22298   0.59326   0.45948   0.12311  Uiso   1.00
C2608  C     0.22483   0.55829   0.28017   0.12311  Uiso   1.00
C2609  C     0.21602   0.57167   0.49471   0.12311  Uiso   1.00
C2610  C     0.20122   0.56396   0.49448   0.12311  Uiso   1.00
C2611  C     0.17918   0.59132   0.47131   0.12311  Uiso   1.00
C2612  C     0.19289   0.59279   0.46580   0.12311  Uiso   1.00
N2613  N     0.23609   0.59323   0.47318   0.12311  Uiso   1.00
N2614  N     0.23724   0.57162   0.26686   0.12311  Uiso   1.00
H2615  H     0.21932   0.60611   0.43042   0.12311  Uiso   1.00
H2616  H     0.22270   0.54243   0.30915   0.12311  Uiso   1.00
H2617  H     0.17349   0.61102   0.45171   0.12311  Uiso   1.00
H2618  H     0.19658   0.61348   0.44242   0.12311  Uiso   1.00
H2619  H     0.16638   0.69282   0.38041   0.12311  Uiso   0.00
C2620  C     0.15202   0.71826   0.41552   0.12311  Uiso   1.00
C2621  C     0.15017   0.68329   0.34483   0.12311  Uiso   1.00
C2622  C     0.15898   0.69667   0.38029   0.12311  Uiso   1.00
C2623  C     0.17378   0.68896   0.38052   0.12311  Uiso   1.00
C2624  C     0.19582   0.71632   0.40369   0.12311  Uiso   1.00
C2625  C     0.18211   0.71779   0.40920   0.12311  Uiso   1.00
N2626  N     0.13891   0.71823   0.40182   0.12311  Uiso   1.00
N2627  N     0.13776   0.69662   0.35814   0.12311  Uiso   1.00
H2628  H     0.15568   0.73111   0.44458   0.12311  Uiso   1.00
H2629  H     0.15230   0.66743   0.31585   0.12311  Uiso   1.00
H2630  H     0.20151   0.73602   0.42329   0.12311  Uiso   1.00
H2631  H     0.17842   0.73848   0.43258   0.12311  Uiso   1.00
H2632  H     0.04138   0.56782   0.38041   0.12311  Uiso   0.00
C2633  C     0.02702   0.59326   0.41552   0.12311  Uiso   1.00
C2634  C     0.02517   0.55829   0.34483   0.12311  Uiso   1.00
C2635  C     0.03398   0.57167   0.38029   0.12311  Uiso   1.00
C2636  C     0.04878   0.56396   0.38052   0.12311  Uiso   1.00
C2637  C     0.07082   0.59132   0.40369   0.12311  Uiso   1.00
C2638  C     0.05711   0.59279   0.40920   0.12311  Uiso   1.00
N2639  N     0.01391   0.59323   0.40182   0.12311  Uiso   1.00
N2640  N     0.01276   0.57162   0.35814   0.12311  Uiso   1.00
H2641  H     0.03068   0.60611   0.44458   0.12311  Uiso   1.00
H2642  H     0.02730   0.54243   0.31585   0.12311  Uiso   1.00
H2643  H     0.07651   0.61102   0.42329   0.12311  Uiso   1.00
H2644  H     0.05342   0.61348   0.43258   0.12311  Uiso   1.00
H2645  H     0.16638   0.55718   0.25541   0.12311  Uiso   0.00
C2646  C     0.15202   0.53174   0.29052   0.12311  Uiso   1.00
C2647  C     0.15017   0.56671   0.46983   0.12311  Uiso   1.00
C2648  C     0.15898   0.55333   0.25529   0.12311  Uiso   1.00
C2649  C     0.17378   0.56104   0.25552   0.12311  Uiso   1.00
C2650  C     0.19582   0.53368   0.27869   0.12311  Uiso   1.00
C2651  C     0.18211   0.53221   0.28420   0.12311  Uiso   1.00
N2652  N     0.13891   0.53177   0.27682   0.12311  Uiso   1.00
N2653  N     0.13776   0.55338   0.48314   0.12311  Uiso   1.00
H2654  H     0.15568   0.51889   0.31958   0.12311  Uiso   1.00
H2655  H     0.15230   0.58257   0.44085   0.12311  Uiso   1.00
H2656  H     0.20151   0.51398   0.29829   0.12311  Uiso   1.00
H2657  H     0.17842   0.51152   0.30758   0.12311  Uiso   1.00
H2658  H     0.04138   0.68218   0.25541   0.12311  Uiso   0.00
C2659  C     0.02702   0.65674   0.29052   0.12311  Uiso   1.00
C2660  C     0.02517   0.69171   0.46983   0.12311  Uiso   1.00
C2661  C     0.03398   0.67833   0.25529   0.12311  Uiso   1.00
C2662  C     0.04878   0.68604   0.25552   0.12311  Uiso   1.00
C2663  C     0.07082   0.65868   0.27869   0.12311  Uiso   1.00
C2664  C     0.05711   0.65721   0.28420   0.12311  Uiso   1.00
N2665  N     0.01391   0.65677   0.27682   0.12311  Uiso   1.00
N2666  N     0.01276   0.67838   0.48314   0.12311  Uiso   1.00
H2667  H     0.03068   0.64389   0.31958   0.12311  Uiso   1.00
H2668  H     0.02730   0.70757   0.44085   0.12311  Uiso   1.00
H2669  H     0.07651   0.63898   0.29829   0.12311  Uiso   1.00
H2670  H     0.05342   0.63652   0.30758   0.12311  Uiso   1.00
H2671  H     0.08362   0.55718   0.36959   0.12311  Uiso   0.00
C2672  C     0.09798   0.53174   0.33448   0.12311  Uiso   1.00
C2673  C     0.09983   0.56671   0.40517   0.12311  Uiso   1.00
C2674  C     0.09102   0.55333   0.36971   0.12311  Uiso   1.00
C2675  C     0.07622   0.56104   0.36948   0.12311  Uiso   1.00
C2676  C     0.05418   0.53368   0.34631   0.12311  Uiso   1.00
C2677  C     0.06789   0.53221   0.34080   0.12311  Uiso   1.00
N2678  N     0.11109   0.53177   0.34818   0.12311  Uiso   1.00
N2679  N     0.11224   0.55338   0.39186   0.12311  Uiso   1.00
H2680  H     0.09432   0.51889   0.30542   0.12311  Uiso   1.00
H2681  H     0.09770   0.58257   0.43415   0.12311  Uiso   1.00
H2682  H     0.04849   0.51398   0.32671   0.12311  Uiso   1.00
H2683  H     0.07158   0.51152   0.31742   0.12311  Uiso   1.00
H2684  H     0.20862   0.68218   0.36959   0.12311  Uiso   0.00
C2685  C     0.22298   0.65674   0.33448   0.12311  Uiso   1.00
C2686  C     0.22483   0.69171   0.40517   0.12311  Uiso   1.00
C2687  C     0.21602   0.67833   0.36971   0.12311  Uiso   1.00
C2688  C     0.20122   0.68604   0.36948   0.12311  Uiso   1.00
C2689  C     0.17918   0.65868   0.34631   0.12311  Uiso   1.00
C2690  C     0.19289   0.65721   0.34080   0.12311  Uiso   1.00
N2691  N     0.23609   0.65677   0.34818   0.12311  Uiso   1.00
N2692  N     0.23724   0.67838   0.39186   0.12311  Uiso   1.00
H2693  H     0.21932   0.64389   0.30542   0.12311  Uiso   1.00
H2694  H     0.22270   0.70757   0.43415   0.12311  Uiso   1.00
H2695  H     0.17349   0.63898   0.32671   0.12311  Uiso   1.00
H2696  H     0.19658   0.63652   0.31742   0.12311  Uiso   1.00
Fe2697 Fe    0.00000   0.61461   0.31250   0.12311  Uiso   1.00
Fe2698 Fe    0.12500   0.73961   0.31250   0.12311  Uiso   1.00
Fe2699 Fe    0.00000   0.63539   0.43750   0.12311  Uiso   1.00
Fe2700 Fe    0.12500   0.51039   0.43750   0.12311  Uiso   1.00
H2701  H     0.33362   0.69282   0.49459   0.12311  Uiso   0.00
C2702  C     0.34798   0.71826   0.45948   0.12311  Uiso   1.00
C2703  C     0.34983   0.68329   0.28017   0.12311  Uiso   1.00
C2704  C     0.34102   0.69667   0.49471   0.12311  Uiso   1.00
C2705  C     0.32622   0.68896   0.49448   0.12311  Uiso   1.00
C2706  C     0.30418   0.71632   0.47131   0.12311  Uiso   1.00
C2707  C     0.31789   0.71779   0.46580   0.12311  Uiso   1.00
N2708  N     0.36109   0.71823   0.47318   0.12311  Uiso   1.00
N2709  N     0.36224   0.69662   0.26686   0.12311  Uiso   1.00
H2710  H     0.34432   0.73111   0.43042   0.12311  Uiso   1.00
H2711  H     0.34770   0.66743   0.30915   0.12311  Uiso   1.00
H2712  H     0.29849   0.73602   0.45171   0.12311  Uiso   1.00
H2713  H     0.32158   0.73848   0.44242   0.12311  Uiso   1.00
H2714  H     0.45862   0.56782   0.49459   0.12311  Uiso   0.00
C2715  C     0.47298   0.59326   0.45948   0.12311  Uiso   1.00
C2716  C     0.47483   0.55829   0.28017   0.12311  Uiso   1.00
C2717  C     0.46602   0.57167   0.49471   0.12311  Uiso   1.00
C2718  C     0.45122   0.56396   0.49448   0.12311  Uiso   1.00
C2719  C     0.42918   0.59132   0.47131   0.12311  Uiso   1.00
C2720  C     0.44289   0.59279   0.46580   0.12311  Uiso   1.00
N2721  N     0.48609   0.59323   0.47318   0.12311  Uiso   1.00
N2722  N     0.48724   0.57162   0.26686   0.12311  Uiso   1.00
H2723  H     0.46932   0.60611   0.43042   0.12311  Uiso   1.00
H2724  H     0.47270   0.54243   0.30915   0.12311  Uiso   1.00
H2725  H     0.42349   0.61102   0.45171   0.12311  Uiso   1.00
H2726  H     0.44658   0.61348   0.44242   0.12311  Uiso   1.00
H2727  H     0.41638   0.69282   0.38041   0.12311  Uiso   0.00
C2728  C     0.40202   0.71826   0.41552   0.12311  Uiso   1.00
C2729  C     0.40017   0.68329   0.34483   0.12311  Uiso   1.00
C2730  C     0.40898   0.69667   0.38029   0.12311  Uiso   1.00
C2731  C     0.42378   0.68896   0.38052   0.12311  Uiso   1.00
C2732  C     0.44582   0.71632   0.40369   0.12311  Uiso   1.00
C2733  C     0.43211   0.71779   0.40920   0.12311  Uiso   1.00
N2734  N     0.38891   0.71823   0.40182   0.12311  Uiso   1.00
N2735  N     0.38776   0.69662   0.35814   0.12311  Uiso   1.00
H2736  H     0.40568   0.73111   0.44458   0.12311  Uiso   1.00
H2737  H     0.40230   0.66743   0.31585   0.12311  Uiso   1.00
H2738  H     0.45151   0.73602   0.42329   0.12311  Uiso   1.00
H2739  H     0.42842   0.73848   0.43258   0.12311  Uiso   1.00
H2740  H     0.29138   0.56782   0.38041   0.12311  Uiso   0.00
C2741  C     0.27702   0.59326   0.41552   0.12311  Uiso   1.00
C2742  C     0.27517   0.55829   0.34483   0.12311  Uiso   1.00
C2743  C     0.28398   0.57167   0.38029   0.12311  Uiso   1.00
C2744  C     0.29878   0.56396   0.38052   0.12311  Uiso   1.00
C2745  C     0.32082   0.59132   0.40369   0.12311  Uiso   1.00
C2746  C     0.30711   0.59279   0.40920   0.12311  Uiso   1.00
N2747  N     0.26391   0.59323   0.40182   0.12311  Uiso   1.00
N2748  N     0.26276   0.57162   0.35814   0.12311  Uiso   1.00
H2749  H     0.28068   0.60611   0.44458   0.12311  Uiso   1.00
H2750  H     0.27730   0.54243   0.31585   0.12311  Uiso   1.00
H2751  H     0.32651   0.61102   0.42329   0.12311  Uiso   1.00
H2752  H     0.30342   0.61348   0.43258   0.12311  Uiso   1.00
H2753  H     0.41638   0.55718   0.25541   0.12311  Uiso   0.00
C2754  C     0.40202   0.53174   0.29052   0.12311  Uiso   1.00
C2755  C     0.40017   0.56671   0.46983   0.12311  Uiso   1.00
C2756  C     0.40898   0.55333   0.25529   0.12311  Uiso   1.00
C2757  C     0.42378   0.56104   0.25552   0.12311  Uiso   1.00
C2758  C     0.44582   0.53368   0.27869   0.12311  Uiso   1.00
C2759  C     0.43211   0.53221   0.28420   0.12311  Uiso   1.00
N2760  N     0.38891   0.53177   0.27682   0.12311  Uiso   1.00
N2761  N     0.38776   0.55338   0.48314   0.12311  Uiso   1.00
H2762  H     0.40568   0.51889   0.31958   0.12311  Uiso   1.00
H2763  H     0.40230   0.58257   0.44085   0.12311  Uiso   1.00
H2764  H     0.45151   0.51398   0.29829   0.12311  Uiso   1.00
H2765  H     0.42842   0.51152   0.30758   0.12311  Uiso   1.00
H2766  H     0.29138   0.68218   0.25541   0.12311  Uiso   0.00
C2767  C     0.27702   0.65674   0.29052   0.12311  Uiso   1.00
C2768  C     0.27517   0.69171   0.46983   0.12311  Uiso   1.00
C2769  C     0.28398   0.67833   0.25529   0.12311  Uiso   1.00
C2770  C     0.29878   0.68604   0.25552   0.12311  Uiso   1.00
C2771  C     0.32082   0.65868   0.27869   0.12311  Uiso   1.00
C2772  C     0.30711   0.65721   0.28420   0.12311  Uiso   1.00
N2773  N     0.26391   0.65677   0.27682   0.12311  Uiso   1.00
N2774  N     0.26276   0.67838   0.48314   0.12311  Uiso   1.00
H2775  H     0.28068   0.64389   0.31958   0.12311  Uiso   1.00
H2776  H     0.27730   0.70757   0.44085   0.12311  Uiso   1.00
H2777  H     0.32651   0.63898   0.29829   0.12311  Uiso   1.00
H2778  H     0.30342   0.63652   0.30758   0.12311  Uiso   1.00
H2779  H     0.33362   0.55718   0.36959   0.12311  Uiso   0.00
C2780  C     0.34798   0.53174   0.33448   0.12311  Uiso   1.00
C2781  C     0.34983   0.56671   0.40517   0.12311  Uiso   1.00
C2782  C     0.34102   0.55333   0.36971   0.12311  Uiso   1.00
C2783  C     0.32622   0.56104   0.36948   0.12311  Uiso   1.00
C2784  C     0.30418   0.53368   0.34631   0.12311  Uiso   1.00
C2785  C     0.31789   0.53221   0.34080   0.12311  Uiso   1.00
N2786  N     0.36109   0.53177   0.34818   0.12311  Uiso   1.00
N2787  N     0.36224   0.55338   0.39186   0.12311  Uiso   1.00
H2788  H     0.34432   0.51889   0.30542   0.12311  Uiso   1.00
H2789  H     0.34770   0.58257   0.43415   0.12311  Uiso   1.00
H2790  H     0.29849   0.51398   0.32671   0.12311  Uiso   1.00
H2791  H     0.32158   0.51152   0.31742   0.12311  Uiso   1.00
H2792  H     0.45862   0.68218   0.36959   0.12311  Uiso   0.00
C2793  C     0.47298   0.65674   0.33448   0.12311  Uiso   1.00
C2794  C     0.47483   0.69171   0.40517   0.12311  Uiso   1.00
C2795  C     0.46602   0.67833   0.36971   0.12311  Uiso   1.00
C2796  C     0.45122   0.68604   0.36948   0.12311  Uiso   1.00
C2797  C     0.42918   0.65868   0.34631   0.12311  Uiso   1.00
C2798  C     0.44289   0.65721   0.34080   0.12311  Uiso   1.00
N2799  N     0.48609   0.65677   0.34818   0.12311  Uiso   1.00
N2800  N     0.48724   0.67838   0.39186   0.12311  Uiso   1.00
H2801  H     0.46932   0.64389   0.30542   0.12311  Uiso   1.00
H2802  H     0.47270   0.70757   0.43415   0.12311  Uiso   1.00
H2803  H     0.42349   0.63898   0.32671   0.12311  Uiso   1.00
H2804  H     0.44658   0.63652   0.31742   0.12311  Uiso   1.00
Fe2805 Fe    0.25000   0.61461   0.31250   0.12311  Uiso   1.00
Fe2806 Fe    0.37500   0.73961   0.31250   0.12311  Uiso   1.00
Fe2807 Fe    0.25000   0.63539   0.43750   0.12311  Uiso   1.00
Fe2808 Fe    0.37500   0.51039   0.43750   0.12311  Uiso   1.00
H2809  H     0.58362   0.69282   0.49459   0.12311  Uiso   0.00
C2810  C     0.59798   0.71826   0.45948   0.12311  Uiso   1.00
C2811  C     0.59983   0.68329   0.28017   0.12311  Uiso   1.00
C2812  C     0.59102   0.69667   0.49471   0.12311  Uiso   1.00
C2813  C     0.57622   0.68896   0.49448   0.12311  Uiso   1.00
C2814  C     0.55418   0.71632   0.47131   0.12311  Uiso   1.00
C2815  C     0.56789   0.71779   0.46580   0.12311  Uiso   1.00
N2816  N     0.61109   0.71823   0.47318   0.12311  Uiso   1.00
N2817  N     0.61224   0.69662   0.26686   0.12311  Uiso   1.00
H2818  H     0.59432   0.73111   0.43042   0.12311  Uiso   1.00
H2819  H     0.59770   0.66743   0.30915   0.12311  Uiso   1.00
H2820  H     0.54849   0.73602   0.45171   0.12311  Uiso   1.00
H2821  H     0.57158   0.73848   0.44242   0.12311  Uiso   1.00
H2822  H     0.70862   0.56782   0.49459   0.12311  Uiso   0.00
C2823  C     0.72298   0.59326   0.45948   0.12311  Uiso   1.00
C2824  C     0.72483   0.55829   0.28017   0.12311  Uiso   1.00
C2825  C     0.71602   0.57167   0.49471   0.12311  Uiso   1.00
C2826  C     0.70122   0.56396   0.49448   0.12311  Uiso   1.00
C2827  C     0.67918   0.59132   0.47131   0.12311  Uiso   1.00
C2828  C     0.69289   0.59279   0.46580   0.12311  Uiso   1.00
N2829  N     0.73609   0.59323   0.47318   0.12311  Uiso   1.00
N2830  N     0.73724   0.57162   0.26686   0.12311  Uiso   1.00
H2831  H     0.71932   0.60611   0.43042   0.12311  Uiso   1.00
H2832  H     0.72270   0.54243   0.30915   0.12311  Uiso   1.00
H2833  H     0.67349   0.61102   0.45171   0.12311  Uiso   1.00
H2834  H     0.69658   0.61348   0.44242   0.12311  Uiso   1.00
H2835  H     0.66638   0.69282   0.38041   0.12311  Uiso   0.00
C2836  C     0.65202   0.71826   0.41552   0.12311  Uiso   1.00
C2837  C     0.65017   0.68329   0.34483   0.12311  Uiso   1.00
C2838  C     0.65898   0.69667   0.38029   0.12311  Uiso   1.00
C2839  C     0.67378   0.68896   0.38052   0.12311  Uiso   1.00
C2840  C     0.69582   0.71632   0.40369   0.12311  Uiso   1.00
C2841  C     0.68211   0.71779   0.40920   0.12311  Uiso   1.00
N2842  N     0.63891   0.71823   0.40182   0.12311  Uiso   1.00
N2843  N     0.63776   0.69662   0.35814   0.12311  Uiso   1.00
H2844  H     0.65568   0.73111   0.44458   0.12311  Uiso   1.00
H2845  H     0.65230   0.66743   0.31585   0.12311  Uiso   1.00
H2846  H     0.70151   0.73602   0.42329   0.12311  Uiso   1.00
H2847  H     0.67842   0.73848   0.43258   0.12311  Uiso   1.00
H2848  H     0.54138   0.56782   0.38041   0.12311  Uiso   0.00
C2849  C     0.52702   0.59326   0.41552   0.12311  Uiso   1.00
C2850  C     0.52517   0.55829   0.34483   0.12311  Uiso   1.00
C2851  C     0.53398   0.57167   0.38029   0.12311  Uiso   1.00
C2852  C     0.54878   0.56396   0.38052   0.12311  Uiso   1.00
C2853  C     0.57082   0.59132   0.40369   0.12311  Uiso   1.00
C2854  C     0.55711   0.59279   0.40920   0.12311  Uiso   1.00
N2855  N     0.51391   0.59323   0.40182   0.12311  Uiso   1.00
N2856  N     0.51276   0.57162   0.35814   0.12311  Uiso   1.00
H2857  H     0.53068   0.60611   0.44458   0.12311  Uiso   1.00
H2858  H     0.52730   0.54243   0.31585   0.12311  Uiso   1.00
H2859  H     0.57651   0.61102   0.42329   0.12311  Uiso   1.00
H2860  H     0.55342   0.61348   0.43258   0.12311  Uiso   1.00
H2861  H     0.66638   0.55718   0.25541   0.12311  Uiso   0.00
C2862  C     0.65202   0.53174   0.29052   0.12311  Uiso   1.00
C2863  C     0.65017   0.56671   0.46983   0.12311  Uiso   1.00
C2864  C     0.65898   0.55333   0.25529   0.12311  Uiso   1.00
C2865  C     0.67378   0.56104   0.25552   0.12311  Uiso   1.00
C2866  C     0.69582   0.53368   0.27869   0.12311  Uiso   1.00
C2867  C     0.68211   0.53221   0.28420   0.12311  Uiso   1.00
N2868  N     0.63891   0.53177   0.27682   0.12311  Uiso   1.00
N2869  N     0.63776   0.55338   0.48314   0.12311  Uiso   1.00
H2870  H     0.65568   0.51889   0.31958   0.12311  Uiso   1.00
H2871  H     0.65230   0.58257   0.44085   0.12311  Uiso   1.00
H2872  H     0.70151   0.51398   0.29829   0.12311  Uiso   1.00
H2873  H     0.67842   0.51152   0.30758   0.12311  Uiso   1.00
H2874  H     0.54138   0.68218   0.25541   0.12311  Uiso   0.00
C2875  C     0.52702   0.65674   0.29052   0.12311  Uiso   1.00
C2876  C     0.52517   0.69171   0.46983   0.12311  Uiso   1.00
C2877  C     0.53398   0.67833   0.25529   0.12311  Uiso   1.00
C2878  C     0.54878   0.68604   0.25552   0.12311  Uiso   1.00
C2879  C     0.57082   0.65868   0.27869   0.12311  Uiso   1.00
C2880  C     0.55711   0.65721   0.28420   0.12311  Uiso   1.00
N2881  N     0.51391   0.65677   0.27682   0.12311  Uiso   1.00
N2882  N     0.51276   0.67838   0.48314   0.12311  Uiso   1.00
H2883  H     0.53068   0.64389   0.31958   0.12311  Uiso   1.00
H2884  H     0.52730   0.70757   0.44085   0.12311  Uiso   1.00
H2885  H     0.57651   0.63898   0.29829   0.12311  Uiso   1.00
H2886  H     0.55342   0.63652   0.30758   0.12311  Uiso   1.00
H2887  H     0.58362   0.55718   0.36959   0.12311  Uiso   0.00
C2888  C     0.59798   0.53174   0.33448   0.12311  Uiso   1.00
C2889  C     0.59983   0.56671   0.40517   0.12311  Uiso   1.00
C2890  C     0.59102   0.55333   0.36971   0.12311  Uiso   1.00
C2891  C     0.57622   0.56104   0.36948   0.12311  Uiso   1.00
C2892  C     0.55418   0.53368   0.34631   0.12311  Uiso   1.00
C2893  C     0.56789   0.53221   0.34080   0.12311  Uiso   1.00
N2894  N     0.61109   0.53177   0.34818   0.12311  Uiso   1.00
N2895  N     0.61224   0.55338   0.39186   0.12311  Uiso   1.00
H2896  H     0.59432   0.51889   0.30542   0.12311  Uiso   1.00
H2897  H     0.59770   0.58257   0.43415   0.12311  Uiso   1.00
H2898  H     0.54849   0.51398   0.32671   0.12311  Uiso   1.00
H2899  H     0.57158   0.51152   0.31742   0.12311  Uiso   1.00
H2900  H     0.70862   0.68218   0.36959   0.12311  Uiso   0.00
C2901  C     0.72298   0.65674   0.33448   0.12311  Uiso   1.00
C2902  C     0.72483   0.69171   0.40517   0.12311  Uiso   1.00
C2903  C     0.71602   0.67833   0.36971   0.12311  Uiso   1.00
C2904  C     0.70122   0.68604   0.36948   0.12311  Uiso   1.00
C2905  C     0.67918   0.65868   0.34631   0.12311  Uiso   1.00
C2906  C     0.69289   0.65721   0.34080   0.12311  Uiso   1.00
N2907  N     0.73609   0.65677   0.34818   0.12311  Uiso   1.00
N2908  N     0.73724   0.67838   0.39186   0.12311  Uiso   1.00
H2909  H     0.71932   0.64389   0.30542   0.12311  Uiso   1.00
H2910  H     0.72270   0.70757   0.43415   0.12311  Uiso   1.00
H2911  H     0.67349   0.63898   0.32671   0.12311  Uiso   1.00
H2912  H     0.69658   0.63652   0.31742   0.12311  Uiso   1.00
Fe2913 Fe    0.50000   0.61461   0.31250   0.12311  Uiso   1.00
Fe2914 Fe    0.62500   0.73961   0.31250   0.12311  Uiso   1.00
Fe2915 Fe    0.50000   0.63539   0.43750   0.12311  Uiso   1.00
Fe2916 Fe    0.62500   0.51039   0.43750   0.12311  Uiso   1.00
H2917  H     0.83362   0.69282   0.49459   0.12311  Uiso   0.00
C2918  C     0.84798   0.71826   0.45948   0.12311  Uiso   1.00
C2919  C     0.84983   0.68329   0.28017   0.12311  Uiso   1.00
C2920  C     0.84102   0.69667   0.49471   0.12311  Uiso   1.00
C2921  C     0.82622   0.68896   0.49448   0.12311  Uiso   1.00
C2922  C     0.80418   0.71632   0.47131   0.12311  Uiso   1.00
C2923  C     0.81789   0.71779   0.46580   0.12311  Uiso   1.00
N2924  N     0.86109   0.71823   0.47318   0.12311  Uiso   1.00
N2925  N     0.86224   0.69662   0.26686   0.12311  Uiso   1.00
H2926  H     0.84432   0.73111   0.43042   0.12311  Uiso   1.00
H2927  H     0.84770   0.66743   0.30915   0.12311  Uiso   1.00
H2928  H     0.79849   0.73602   0.45171   0.12311  Uiso   1.00
H2929  H     0.82158   0.73848   0.44242   0.12311  Uiso   1.00
H2930  H     0.95862   0.56782   0.49459   0.12311  Uiso   0.00
C2931  C     0.97298   0.59326   0.45948   0.12311  Uiso   1.00
C2932  C     0.97483   0.55829   0.28017   0.12311  Uiso   1.00
C2933  C     0.96602   0.57167   0.49471   0.12311  Uiso   1.00
C2934  C     0.95122   0.56396   0.49448   0.12311  Uiso   1.00
C2935  C     0.92918   0.59132   0.47131   0.12311  Uiso   1.00
C2936  C     0.94289   0.59279   0.46580   0.12311  Uiso   1.00
N2937  N     0.98609   0.59323   0.47318   0.12311  Uiso   1.00
N2938  N     0.98724   0.57162   0.26686   0.12311  Uiso   1.00
H2939  H     0.96932   0.60611   0.43042   0.12311  Uiso   1.00
H2940  H     0.97270   0.54243   0.30915   0.12311  Uiso   1.00
H2941  H     0.92349   0.61102   0.45171   0.12311  Uiso   1.00
H2942  H     0.94658   0.61348   0.44242   0.12311  Uiso   1.00
H2943  H     0.91638   0.69282   0.38041   0.12311  Uiso   0.00
C2944  C     0.90202   0.71826   0.41552   0.12311  Uiso   1.00
C2945  C     0.90017   0.68329   0.34483   0.12311  Uiso   1.00
C2946  C     0.90898   0.69667   0.38029   0.12311  Uiso   1.00
C2947  C     0.92378   0.68896   0.38052   0.12311  Uiso   1.00
C2948  C     0.94582   0.71632   0.40369   0.12311  Uiso   1.00
C2949  C     0.93211   0.71779   0.40920   0.12311  Uiso   1.00
N2950  N     0.88891   0.71823   0.40182   0.12311  Uiso   1.00
N2951  N     0.88776   0.69662   0.35814   0.12311  Uiso   1.00
H2952  H     0.90568   0.73111   0.44458   0.12311  Uiso   1.00
H2953  H     0.90230   0.66743   0.31585   0.12311  Uiso   1.00
H2954  H     0.95151   0.73602   0.42329   0.12311  Uiso   1.00
H2955  H     0.92842   0.73848   0.43258   0.12311  Uiso   1.00
H2956  H     0.79138   0.56782   0.38041   0.12311  Uiso   0.00
C2957  C     0.77702   0.59326   0.41552   0.12311  Uiso   1.00
C2958  C     0.77517   0.55829   0.34483   0.12311  Uiso   1.00
C2959  C     0.78398   0.57167   0.38029   0.12311  Uiso   1.00
C2960  C     0.79878   0.56396   0.38052   0.12311  Uiso   1.00
C2961  C     0.82082   0.59132   0.40369   0.12311  Uiso   1.00
C2962  C     0.80711   0.59279   0.40920   0.12311  Uiso   1.00
N2963  N     0.76391   0.59323   0.40182   0.12311  Uiso   1.00
N2964  N     0.76276   0.57162   0.35814   0.12311  Uiso   1.00
H2965  H     0.78068   0.60611   0.44458   0.12311  Uiso   1.00
H2966  H     0.77730   0.54243   0.31585   0.12311  Uiso   1.00
H2967  H     0.82651   0.61102   0.42329   0.12311  Uiso   1.00
H2968  H     0.80342   0.61348   0.43258   0.12311  Uiso   1.00
H2969  H     0.91638   0.55718   0.25541   0.12311  Uiso   0.00
C2970  C     0.90202   0.53174   0.29052   0.12311  Uiso   1.00
C2971  C     0.90017   0.56671   0.46983   0.12311  Uiso   1.00
C2972  C     0.90898   0.55333   0.25529   0.12311  Uiso   1.00
C2973  C     0.92378   0.56104   0.25552   0.12311  Uiso   1.00
C2974  C     0.94582   0.53368   0.27869   0.12311  Uiso   1.00
C2975  C     0.93211   0.53221   0.28420   0.12311  Uiso   1.00
N2976  N     0.88891   0.53177   0.27682   0.12311  Uiso   1.00
N2977  N     0.88776   0.55338   0.48314   0.12311  Uiso   1.00
H2978  H     0.90568   0.51889   0.31958   0.12311  Uiso   1.00
H2979  H     0.90230   0.58257   0.44085   0.12311  Uiso   1.00
H2980  H     0.95151   0.51398   0.29829   0.12311  Uiso   1.00
H2981  H     0.92842   0.51152   0.30758   0.12311  Uiso   1.00
H2982  H     0.79138   0.68218   0.25541   0.12311  Uiso   0.00
C2983  C     0.77702   0.65674   0.29052   0.12311  Uiso   1.00
C2984  C     0.77517   0.69171   0.46983   0.12311  Uiso   1.00
C2985  C     0.78398   0.67833   0.25529   0.12311  Uiso   1.00
C2986  C     0.79878   0.68604   0.25552   0.12311  Uiso   1.00
C2987  C     0.82082   0.65868   0.27869   0.12311  Uiso   1.00
C2988  C     0.80711   0.65721   0.28420   0.12311  Uiso   1.00
N2989  N     0.76391   0.65677   0.27682   0.12311  Uiso   1.00
N2990  N     0.76276   0.67838   0.48314   0.12311  Uiso   1.00
H2991  H     0.78068   0.64389   0.31958   0.12311  Uiso   1.00
H2992  H     0.77730   0.70757   0.44085   0.12311  Uiso   1.00
H2993  H     0.82651   0.63898   0.29829   0.12311  Uiso   1.00
H2994  H     0.80342   0.63652   0.30758   0.12311  Uiso   1.00
H2995  H     0.83362   0.55718   0.36959   0.12311  Uiso   0.00
C2996  C     0.84798   0.53174   0.33448   0.12311  Uiso   1.00
C2997  C     0.84983   0.56671   0.40517   0.12311  Uiso   1.00
C2998  C     0.84102   0.55333   0.36971   0.12311  Uiso   1.00
C2999  C     0.82622   0.56104   0.36948   0.12311  Uiso   1.00
C3000  C     0.80418   0.53368   0.34631   0.12311  Uiso   1.00
C3001  C     0.81789   0.53221   0.34080   0.12311  Uiso   1.00
N3002  N     0.86109   0.53177   0.34818   0.12311  Uiso   1.00
N3003  N     0.86224   0.55338   0.39186   0.12311  Uiso   1.00
H3004  H     0.84432   0.51889   0.30542   0.12311  Uiso   1.00
H3005  H     0.84770   0.58257   0.43415   0.12311  Uiso   1.00
H3006  H     0.79849   0.51398   0.32671   0.12311  Uiso   1.00
H3007  H     0.82158   0.51152   0.31742   0.12311  Uiso   1.00
H3008  H     0.95862   0.68218   0.36959   0.12311  Uiso   0.00
C3009  C     0.97298   0.65674   0.33448   0.12311  Uiso   1.00
C3010  C     0.97483   0.69171   0.40517   0.12311  Uiso   1.00
C3011  C     0.96602   0.67833   0.36971   0.12311  Uiso   1.00
C3012  C     0.95122   0.68604   0.36948   0.12311  Uiso   1.00
C3013  C     0.92918   0.65868   0.34631   0.12311  Uiso   1.00
C3014  C     0.94289   0.65721   0.34080   0.12311  Uiso   1.00
N3015  N     0.98609   0.65677   0.34818   0.12311  Uiso   1.00
N3016  N     0.98724   0.67838   0.39186   0.12311  Uiso   1.00
H3017  H     0.96932   0.64389   0.30542   0.12311  Uiso   1.00
H3018  H     0.97270   0.70757   0.43415   0.12311  Uiso   1.00
H3019  H     0.92349   0.63898   0.32671   0.12311  Uiso   1.00
H3020  H     0.94658   0.63652   0.31742   0.12311  Uiso   1.00
Fe3021 Fe    0.75000   0.61461   0.31250   0.12311  Uiso   1.00
Fe3022 Fe    0.87500   0.73961   0.31250   0.12311  Uiso   1.00
Fe3023 Fe    0.75000   0.63539   0.43750   0.12311  Uiso   1.00
Fe3024 Fe    0.87500   0.51039   0.43750   0.12311  Uiso   1.00
H3025  H     0.08362   0.94282   0.49459   0.12311  Uiso   0.00
C3026  C     0.09798   0.96826   0.45948   0.12311  Uiso   1.00
C3027  C     0.09983   0.93329   0.28017   0.12311  Uiso   1.00
C3028  C     0.09102   0.94667   0.49471   0.12311  Uiso   1.00
C3029  C     0.07622   0.93896   0.49448   0.12311  Uiso   1.00
C3030  C     0.05418   0.96632   0.47131   0.12311  Uiso   1.00
C3031  C     0.06789   0.96779   0.46580   0.12311  Uiso   1.00
N3032  N     0.11109   0.96823   0.47318   0.12311  Uiso   1.00
N3033  N     0.11224   0.94662   0.26686   0.12311  Uiso   1.00
H3034  H     0.09432   0.98111   0.43042   0.12311  Uiso   1.00
H3035  H     0.09770   0.91743   0.30915   0.12311  Uiso   1.00
H3036  H     0.04849   0.98602   0.45171   0.12311  Uiso   1.00
H3037  H     0.07158   0.98848   0.44242   0.12311  Uiso   1.00
H3038  H     0.20862   0.81782   0.49459   0.12311  Uiso   0.00
C3039  C     0.22298   0.84326   0.45948   0.12311  Uiso   1.00
C3040  C     0.22483   0.80829   0.28017   0.12311  Uiso   1.00
C3041  C     0.21602   0.82167   0.49471   0.12311  Uiso   1.00
C3042  C     0.20122   0.81396   0.49448   0.12311  Uiso   1.00
C3043  C     0.17918   0.84132   0.47131   0.12311  Uiso   1.00
C3044  C     0.19289   0.84279   0.46580   0.12311  Uiso   1.00
N3045  N     0.23609   0.84323   0.47318   0.12311  Uiso   1.00
N3046  N     0.23724   0.82162   0.26686   0.12311  Uiso   1.00
H3047  H     0.21932   0.85611   0.43042   0.12311  Uiso   1.00
H3048  H     0.22270   0.79243   0.30915   0.12311  Uiso   1.00
H3049  H     0.17349   0.86102   0.45171   0.12311  Uiso   1.00
H3050  H     0.19658   0.86348   0.44242   0.12311  Uiso   1.00
H3051  H     0.16638   0.94282   0.38041   0.12311  Uiso   0.00
C3052  C     0.15202   0.96826   0.41552   0.12311  Uiso   1.00
C3053  C     0.15017   0.93329   0.34483   0.12311  Uiso   1.00
C3054  C     0.15898   0.94667   0.38029   0.12311  Uiso   1.00
C3055  C     0.17378   0.93896   0.38052   0.12311  Uiso   1.00
C3056  C     0.19582   0.96632   0.40369   0.12311  Uiso   1.00
C3057  C     0.18211   0.96779   0.40920   0.12311  Uiso   1.00
N3058  N     0.13891   0.96823   0.40182   0.12311  Uiso   1.00
N3059  N     0.13776   0.94662   0.35814   0.12311  Uiso   1.00
H3060  H     0.15568   0.98111   0.44458   0.12311  Uiso   1.00
H3061  H     0.15230   0.91743   0.31585   0.12311  Uiso   1.00
H3062  H     0.20151   0.98602   0.42329   0.12311  Uiso   1.00
H3063  H     0.17842   0.98848   0.43258   0.12311  Uiso   1.00
H3064  H     0.04138   0.81782   0.38041   0.12311  Uiso   0.00
C3065  C     0.02702   0.84326   0.41552   0.12311  Uiso   1.00
C3066  C     0.02517   0.80829   0.34483   0.12311  Uiso   1.00
C3067  C     0.03398   0.82167   0.38029   0.12311  Uiso   1.00
C3068  C     0.04878   0.81396   0.38052   0.12311  Uiso   1.00
C3069  C     0.07082   0.84132   0.40369   0.12311  Uiso   1.00
C3070  C     0.05711   0.84279   0.40920   0.12311  Uiso   1.00
N3071  N     0.01391   0.84323   0.40182   0.12311  Uiso   1.00
N3072  N     0.01276   0.82162   0.35814   0.12311  Uiso   1.00
H3073  H     0.03068   0.85611   0.44458   0.12311  Uiso   1.00
H3074  H     0.02730   0.79243   0.31585   0.12311  Uiso   1.00
H3075  H     0.07651   0.86102   0.42329   0.12311  Uiso   1.00
H3076  H     0.05342   0.86348   0.43258   0.12311  Uiso   1.00
H3077  H     0.16638   0.80718   0.25541   0.12311  Uiso   0.00
C3078  C     0.15202   0.78174   0.29052   0.12311  Uiso   1.00
C3079  C     0.15017   0.81671   0.46983   0.12311  Uiso   1.00
C3080  C     0.15898   0.80333   0.25529   0.12311  Uiso   1.00
C3081  C     0.17378   0.81104   0.25552   0.12311  Uiso   1.00
C3082  C     0.19582   0.78368   0.27869   0.12311  Uiso   1.00
C3083  C     0.18211   0.78221   0.28420   0.12311  Uiso   1.00
N3084  N     0.13891   0.78177   0.27682   0.12311  Uiso   1.00
N3085  N     0.13776   0.80338   0.48314   0.12311  Uiso   1.00
H3086  H     0.15568   0.76889   0.31958   0.12311  Uiso   1.00
H3087  H     0.15230   0.83257   0.44085   0.12311  Uiso   1.00
H3088  H     0.20151   0.76398   0.29829   0.12311  Uiso   1.00
H3089  H     0.17842   0.76152   0.30758   0.12311  Uiso   1.00
H3090  H     0.04138   0.93218   0.25541   0.12311  Uiso   0.00
C3091  C     0.02702   0.90674   0.29052   0.12311  Uiso   1.00
C3092  C     0.02517   0.94171   0.46983   0.12311  Uiso   1.00
C3093  C     0.03398   0.92833   0.25529   0.12311  Uiso   1.00
C3094  C     0.04878   0.93604   0.25552   0.12311  Uiso   1.00
C3095  C     0.07082   0.90868   0.27869   0.12311  Uiso   1.00
C3096  C     0.05711   0.90721   0.28420   0.12311  Uiso   1.00
N3097  N     0.01391   0.90677   0.27682   0.12311  Uiso   1.00
N3098  N     0.01276   0.92838   0.48314   0.12311  Uiso   1.00
H3099  H     0.03068   0.89389   0.31958   0.12311  Uiso   1.00
H3100  H     0.02730   0.95757   0.44085   0.12311  Uiso   1.00
H3101  H     0.07651   0.88898   0.29829   0.12311  Uiso   1.00
H3102  H     0.05342   0.88652   0.30758   0.12311  Uiso   1.00
H3103  H     0.08362   0.80718   0.36959   0.12311  Uiso   0.00
C3104  C     0.09798   0.78174   0.33448   0.12311  Uiso   1.00
C3105  C     0.09983   0.81671   0.40517   0.12311  Uiso   1.00
C3106  C     0.09102   0.80333   0.36971   0.12311  Uiso   1.00
C3107  C     0.07622   0.81104   0.36948   0.12311  Uiso   1.00
C3108  C     0.05418   0.78368   0.34631   0.12311  Uiso   1.00
C3109  C     0.06789   0.78221   0.34080   0.12311  Uiso   1.00
N3110  N     0.11109   0.78177   0.34818   0.12311  Uiso   1.00
N3111  N     0.11224   0.80338   0.39186   0.12311  Uiso   1.00
H3112  H     0.09432   0.76889   0.30542   0.12311  Uiso   1.00
H3113  H     0.09770   0.83257   0.43415   0.12311  Uiso   1.00
H3114  H     0.04849   0.76398   0.32671   0.12311  Uiso   1.00
H3115  H     0.07158   0.76152   0.31742   0.12311  Uiso   1.00
H3116  H     0.20862   0.93218   0.36959   0.12311  Uiso   0.00
C3117  C     0.22298   0.90674   0.33448   0.12311  Uiso   1.00
C3118  C     0.22483   0.94171   0.40517   0.12311  Uiso   1.00
C3119  C     0.21602   0.92833   0.36971   0.12311  Uiso   1.00
C3120  C     0.20122   0.93604   0.36948   0.12311  Uiso   1.00
C3121  C     0.17918   0.90868   0.34631   0.12311  Uiso   1.00
C3122  C     0.19289   0.90721   0.34080   0.12311  Uiso   1.00
N3123  N     0.23609   0.90677   0.34818   0.12311  Uiso   1.00
N3124  N     0.23724   0.92838   0.39186   0.12311  Uiso   1.00
H3125  H     0.21932   0.89389   0.30542   0.12311  Uiso   1.00
H3126  H     0.22270   0.95757   0.43415   0.12311  Uiso   1.00
H3127  H     0.17349   0.88898   0.32671   0.12311  Uiso   1.00
H3128  H     0.19658   0.88652   0.31742   0.12311  Uiso   1.00
Fe3129 Fe    0.00000   0.86461   0.31250   0.12311  Uiso   1.00
Fe3130 Fe    0.12500   0.98961   0.31250   0.12311  Uiso   1.00
Fe3131 Fe    0.00000   0.88539   0.43750   0.12311  Uiso   1.00
Fe3132 Fe    0.12500   0.76039   0.43750   0.12311  Uiso   1.00
H3133  H     0.33362   0.94282   0.49459   0.12311  Uiso   0.00
C3134  C     0.34798   0.96826   0.45948   0.12311  Uiso   1.00
C3135  C     0.34983   0.93329   0.28017   0.12311  Uiso   1.00
C3136  C     0.34102   0.94667   0.49471   0.12311  Uiso   1.00
C3137  C     0.32622   0.93896   0.49448   0.12311  Uiso   1.00
C3138  C     0.30418   0.96632   0.47131   0.12311  Uiso   1.00
C3139  C     0.31789   0.96779   0.46580   0.12311  Uiso   1.00
N3140  N     0.36109   0.96823   0.47318   0.12311  Uiso   1.00
N3141  N     0.36224   0.94662   0.26686   0.12311  Uiso   1.00
H3142  H     0.34432   0.98111   0.43042   0.12311  Uiso   1.00
H3143  H     0.34770   0.91743   0.30915   0.12311  Uiso   1.00
H3144  H     0.29849   0.98602   0.45171   0.12311  Uiso   1.00
H3145  H     0.32158   0.98848   0.44242   0.12311  Uiso   1.00
H3146  H     0.45862   0.81782   0.49459   0.12311  Uiso   0.00
C3147  C     0.47298   0.84326   0.45948   0.12311  Uiso   1.00
C3148  C     0.47483   0.80829   0.28017   0.12311  Uiso   1.00
C3149  C     0.46602   0.82167   0.49471   0.12311  Uiso   1.00
C3150  C     0.45122   0.81396   0.49448   0.12311  Uiso   1.00
C3151  C     0.42918   0.84132   0.47131   0.12311  Uiso   1.00
C3152  C     0.44289   0.84279   0.46580   0.12311  Uiso   1.00
N3153  N     0.48609   0.84323   0.47318   0.12311  Uiso   1.00
N3154  N     0.48724   0.82162   0.26686   0.12311  Uiso   1.00
H3155  H     0.46932   0.85611   0.43042   0.12311  Uiso   1.00
H3156  H     0.47270   0.79243   0.30915   0.12311  Uiso   1.00
H3157  H     0.42349   0.86102   0.45171   0.12311  Uiso   1.00
H3158  H     0.44658   0.86348   0.44242   0.12311  Uiso   1.00
H3159  H     0.41638   0.94282   0.38041   0.12311  Uiso   0.00
C3160  C     0.40202   0.96826   0.41552   0.12311  Uiso   1.00
C3161  C     0.40017   0.93329   0.34483   0.12311  Uiso   1.00
C3162  C     0.40898   0.94667   0.38029   0.12311  Uiso   1.00
C3163  C     0.42378   0.93896   0.38052   0.12311  Uiso   1.00
C3164  C     0.44582   0.96632   0.40369   0.12311  Uiso   1.00
C3165  C     0.43211   0.96779   0.40920   0.12311  Uiso   1.00
N3166  N     0.38891   0.96823   0.40182   0.12311  Uiso   1.00
N3167  N     0.38776   0.94662   0.35814   0.12311  Uiso   1.00
H3168  H     0.40568   0.98111   0.44458   0.12311  Uiso   1.00
H3169  H     0.40230   0.91743   0.31585   0.12311  Uiso   1.00
H3170  H     0.45151   0.98602   0.42329   0.12311  Uiso   1.00
H3171  H     0.42842   0.98848   0.43258   0.12311  Uiso   1.00
H3172  H     0.29138   0.81782   0.38041   0.12311  Uiso   0.00
C3173  C     0.27702   0.84326   0.41552   0.12311  Uiso   1.00
C3174  C     0.27517   0.80829   0.34483   0.12311  Uiso   1.00
C3175  C     0.28398   0.82167   0.38029   0.12311  Uiso   1.00
C3176  C     0.29878   0.81396   0.38052   0.12311  Uiso   1.00
C3177  C     0.32082   0.84132   0.40369   0.12311  Uiso   1.00
C3178  C     0.30711   0.84279   0.40920   0.12311  Uiso   1.00
N3179  N     0.26391   0.84323   0.40182   0.12311  Uiso   1.00
N3180  N     0.26276   0.82162   0.35814   0.12311  Uiso   1.00
H3181  H     0.28068   0.85611   0.44458   0.12311  Uiso   1.00
H3182  H     0.27730   0.79243   0.31585   0.12311  Uiso   1.00
H3183  H     0.32651   0.86102   0.42329   0.12311  Uiso   1.00
H3184  H     0.30342   0.86348   0.43258   0.12311  Uiso   1.00
H3185  H     0.41638   0.80718   0.25541   0.12311  Uiso   0.00
C3186  C     0.40202   0.78174   0.29052   0.12311  Uiso   1.00
C3187  C     0.40017   0.81671   0.46983   0.12311  Uiso   1.00
C3188  C     0.40898   0.80333   0.25529   0.12311  Uiso   1.00
C3189  C     0.42378   0.81104   0.25552   0.12311  Uiso   1.00
C3190  C     0.44582   0.78368   0.27869   0.12311  Uiso   1.00
C3191  C     0.43211   0.78221   0.28420   0.12311  Uiso   1.00
N3192  N     0.38891   0.78177   0.27682   0.12311  Uiso   1.00
N3193  N     0.38776   0.80338   0.48314   0.12311  Uiso   1.00
H3194  H     0.40568   0.76889   0.31958   0.12311  Uiso   1.00
H3195  H     0.40230   0.83257   0.44085   0.12311  Uiso   1.00
H3196  H     0.45151   0.76398   0.29829   0.12311  Uiso   1.00
H3197  H     0.42842   0.76152   0.30758   0.12311  Uiso   1.00
H3198  H     0.29138   0.93218   0.25541   0.12311  Uiso   0.00
C3199  C     0.27702   0.90674   0.29052   0.12311  Uiso   1.00
C3200  C     0.27517   0.94171   0.46983   0.12311  Uiso   1.00
C3201  C     0.28398   0.92833   0.25529   0.12311  Uiso   1.00
C3202  C     0.29878   0.93604   0.25552   0.12311  Uiso   1.00
C3203  C     0.32082   0.90868   0.27869   0.12311  Uiso   1.00
C3204  C     0.30711   0.90721   0.28420   0.12311  Uiso   1.00
N3205  N     0.26391   0.90677   0.27682   0.12311  Uiso   1.00
N3206  N     0.26276   0.92838   0.48314   0.12311  Uiso   1.00
H3207  H     0.28068   0.89389   0.31958   0.12311  Uiso   1.00
H3208  H     0.27730   0.95757   0.44085   0.12311  Uiso   1.00
H3209  H     0.32651   0.88898   0.29829   0.12311  Uiso   1.00
H3210  H     0.30342   0.88652   0.30758   0.12311  Uiso   1.00
H3211  H     0.33362   0.80718   0.36959   0.12311  Uiso   0.00
C3212  C     0.34798   0.78174   0.33448   0.12311  Uiso   1.00
C3213  C     0.34983   0.81671   0.40517   0.12311  Uiso   1.00
C3214  C     0.34102   0.80333   0.36971   0.12311  Uiso   1.00
C3215  C     0.32622   0.81104   0.36948   0.12311  Uiso   1.00
C3216  C     0.30418   0.78368   0.34631   0.12311  Uiso   1.00
C3217  C     0.31789   0.78221   0.34080   0.12311  Uiso   1.00
N3218  N     0.36109   0.78177   0.34818   0.12311  Uiso   1.00
N3219  N     0.36224   0.80338   0.39186   0.12311  Uiso   1.00
H3220  H     0.34432   0.76889   0.30542   0.12311  Uiso   1.00
H3221  H     0.34770   0.83257   0.43415   0.12311  Uiso   1.00
H3222  H     0.29849   0.76398   0.32671   0.12311  Uiso   1.00
H3223  H     0.32158   0.76152   0.31742   0.12311  Uiso   1.00
H3224  H     0.45862   0.93218   0.36959   0.12311  Uiso   0.00
C3225  C     0.47298   0.90674   0.33448   0.12311  Uiso   1.00
C3226  C     0.47483   0.94171   0.40517   0.12311  Uiso   1.00
C3227  C     0.46602   0.92833   0.36971   0.12311  Uiso   1.00
C3228  C     0.45122   0.93604   0.36948   0.12311  Uiso   1.00
C3229  C     0.42918   0.90868   0.34631   0.12311  Uiso   1.00
C3230  C     0.44289   0.90721   0.34080   0.12311  Uiso   1.00
N3231  N     0.48609   0.90677   0.34818   0.12311  Uiso   1.00
N3232  N     0.48724   0.92838   0.39186   0.12311  Uiso   1.00
H3233  H     0.46932   0.89389   0.30542   0.12311  Uiso   1.00
H3234  H     0.47270   0.95757   0.43415   0.12311  Uiso   1.00
H3235  H     0.42349   0.88898   0.32671   0.12311  Uiso   1.00
H3236  H     0.44658   0.88652   0.31742   0.12311  Uiso   1.00
Fe3237 Fe    0.25000   0.86461   0.31250   0.12311  Uiso   1.00
Fe3238 Fe    0.37500   0.98961   0.31250   0.12311  Uiso   1.00
Fe3239 Fe    0.25000   0.88539   0.43750   0.12311  Uiso   1.00
Fe3240 Fe    0.37500   0.76039   0.43750   0.12311  Uiso   1.00
H3241  H     0.58362   0.94282   0.49459   0.12311  Uiso   0.00
C3242  C     0.59798   0.96826   0.45948   0.12311  Uiso   1.00
C3243  C     0.59983   0.93329   0.28017   0.12311  Uiso   1.00
C3244  C     0.59102   0.94667   0.49471   0.12311  Uiso   1.00
C3245  C     0.57622   0.93896   0.49448   0.12311  Uiso   1.00
C3246  C     0.55418   0.96632   0.47131   0.12311  Uiso   1.00
C3247  C     0.56789   0.96779   0.46580   0.12311  Uiso   1.00
N3248  N     0.61109   0.96823   0.47318   0.12311  Uiso   1.00
N3249  N     0.61224   0.94662   0.26686   0.12311  Uiso   1.00
H3250  H     0.59432   0.98111   0.43042   0.12311  Uiso   1.00
H3251  H     0.59770   0.91743   0.30915   0.12311  Uiso   1.00
H3252  H     0.54849   0.98602   0.45171   0.12311  Uiso   1.00
H3253  H     0.57158   0.98848   0.44242   0.12311  Uiso   1.00
H3254  H     0.70862   0.81782   0.49459   0.12311  Uiso   0.00
C3255  C     0.72298   0.84326   0.45948   0.12311  Uiso   1.00
C3256  C     0.72483   0.80829   0.28017   0.12311  Uiso   1.00
C3257  C     0.71602   0.82167   0.49471   0.12311  Uiso   1.00
C3258  C     0.70122   0.81396   0.49448   0.12311  Uiso   1.00
C3259  C     0.67918   0.84132   0.47131   0.12311  Uiso   1.00
C3260  C     0.69289   0.84279   0.46580   0.12311  Uiso   1.00
N3261  N     0.73609   0.84323   0.47318   0.12311  Uiso   1.00
N3262  N     0.73724   0.82162   0.26686   0.12311  Uiso   1.00
H3263  H     0.71932   0.85611   0.43042   0.12311  Uiso   1.00
H3264  H     0.72270   0.79243   0.30915   0.12311  Uiso   1.00
H3265  H     0.67349   0.86102   0.45171   0.12311  Uiso   1.00
H3266  H     0.69658   0.86348   0.44242   0.12311  Uiso   1.00
H3267  H     0.66638   0.94282   0.38041   0.12311  Uiso   0.00
C3268  C     0.65202   0.96826   0.41552   0.12311  Uiso   1.00
C3269  C     0.65017   0.93329   0.34483   0.12311  Uiso   1.00
C3270  C     0.65898   0.94667   0.38029   0.12311  Uiso   1.00
C3271  C     0.67378   0.93896   0.38052   0.12311  Uiso   1.00
C3272  C     0.69582   0.96632   0.40369   0.12311  Uiso   1.00
C3273  C     0.68211   0.96779   0.40920   0.12311  Uiso   1.00
N3274  N     0.63891   0.96823   0.40182   0.12311  Uiso   1.00
N3275  N     0.63776   0.94662   0.35814   0.12311  Uiso   1.00
H3276  H     0.65568   0.98111   0.44458   0.12311  Uiso   1.00
H3277  H     0.65230   0.91743   0.31585   0.12311  Uiso   1.00
H3278  H     0.70151   0.98602   0.42329   0.12311  Uiso   1.00
H3279  H     0.67842   0.98848   0.43258   0.12311  Uiso   1.00
H3280  H     0.54138   0.81782   0.38041   0.12311  Uiso   0.00
C3281  C     0.52702   0.84326   0.41552   0.12311  Uiso   1.00
C3282  C     0.52517   0.80829   0.34483   0.12311  Uiso   1.00
C3283  C     0.53398   0.82167   0.38029   0.12311  Uiso   1.00
C3284  C     0.54878   0.81396   0.38052   0.12311  Uiso   1.00
C3285  C     0.57082   0.84132   0.40369   0.12311  Uiso   1.00
C3286  C     0.55711   0.84279   0.40920   0.12311  Uiso   1.00
N3287  N     0.51391   0.84323   0.40182   0.12311  Uiso   1.00
N3288  N     0.51276   0.82162   0.35814   0.12311  Uiso   1.00
H3289  H     0.53068   0.85611   0.44458   0.12311  Uiso   1.00
H3290  H     0.52730   0.79243   0.31585   0.12311  Uiso   1.00
H3291  H     0.57651   0.86102   0.42329   0.12311  Uiso   1.00
H3292  H     0.55342   0.86348   0.43258   0.12311  Uiso   1.00
H3293  H     0.66638   0.80718   0.25541   0.12311  Uiso   0.00
C3294  C     0.65202   0.78174   0.29052   0.12311  Uiso   1.00
C3295  C     0.65017   0.81671   0.46983   0.12311  Uiso   1.00
C3296  C     0.65898   0.80333   0.25529   0.12311  Uiso   1.00
C3297  C     0.67378   0.81104   0.25552   0.12311  Uiso   1.00
C3298  C     0.69582   0.78368   0.27869   0.12311  Uiso   1.00
C3299  C     0.68211   0.78221   0.28420   0.12311  Uiso   1.00
N3300  N     0.63891   0.78177   0.27682   0.12311  Uiso   1.00
N3301  N     0.63776   0.80338   0.48314   0.12311  Uiso   1.00
H3302  H     0.65568   0.76889   0.31958   0.12311  Uiso   1.00
H3303  H     0.65230   0.83257   0.44085   0.12311  Uiso   1.00
H3304  H     0.70151   0.76398   0.29829   0.12311  Uiso   1.00
H3305  H     0.67842   0.76152   0.30758   0.12311  Uiso   1.00
H3306  H     0.54138   0.93218   0.25541   0.12311  Uiso   0.00
C3307  C     0.52702   0.90674   0.29052   0.12311  Uiso   1.00
C3308  C     0.52517   0.94171   0.46983   0.12311  Uiso   1.00
C3309  C     0.53398   0.92833   0.25529   0.12311  Uiso   1.00
C3310  C     0.54878   0.93604   0.25552   0.12311  Uiso   1.00
C3311  C     0.57082   0.90868   0.27869   0.12311  Uiso   1.00
C3312  C     0.55711   0.90721   0.28420   0.12311  Uiso   1.00
N3313  N     0.51391   0.90677   0.27682   0.12311  Uiso   1.00
N3314  N     0.51276   0.92838   0.48314   0.12311  Uiso   1.00
H3315  H     0.53068   0.89389   0.31958   0.12311  Uiso   1.00
H3316  H     0.52730   0.95757   0.44085   0.12311  Uiso   1.00
H3317  H     0.57651   0.88898   0.29829   0.12311  Uiso   1.00
H3318  H     0.55342   0.88652   0.30758   0.12311  Uiso   1.00
H3319  H     0.58362   0.80718   0.36959   0.12311  Uiso   0.00
C3320  C     0.59798   0.78174   0.33448   0.12311  Uiso   1.00
C3321  C     0.59983   0.81671   0.40517   0.12311  Uiso   1.00
C3322  C     0.59102   0.80333   0.36971   0.12311  Uiso   1.00
C3323  C     0.57622   0.81104   0.36948   0.12311  Uiso   1.00
C3324  C     0.55418   0.78368   0.34631   0.12311  Uiso   1.00
C3325  C     0.56789   0.78221   0.34080   0.12311  Uiso   1.00
N3326  N     0.61109   0.78177   0.34818   0.12311  Uiso   1.00
N3327  N     0.61224   0.80338   0.39186   0.12311  Uiso   1.00
H3328  H     0.59432   0.76889   0.30542   0.12311  Uiso   1.00
H3329  H     0.59770   0.83257   0.43415   0.12311  Uiso   1.00
H3330  H     0.54849   0.76398   0.32671   0.12311  Uiso   1.00
H3331  H     0.57158   0.76152   0.31742   0.12311  Uiso   1.00
H3332  H     0.70862   0.93218   0.36959   0.12311  Uiso   0.00
C3333  C     0.72298   0.90674   0.33448   0.12311  Uiso   1.00
C3334  C     0.72483   0.94171   0.40517   0.12311  Uiso   1.00
C3335  C     0.71602   0.92833   0.36971   0.12311  Uiso   1.00
C3336  C     0.70122   0.93604   0.36948   0.12311  Uiso   1.00
C3337  C     0.67918   0.90868   0.34631   0.12311  Uiso   1.00
C3338  C     0.69289   0.90721   0.34080   0.12311  Uiso   1.00
N3339  N     0.73609   0.90677   0.34818   0.12311  Uiso   1.00
N3340  N     0.73724   0.92838   0.39186   0.12311  Uiso   1.00
H3341  H     0.71932   0.89389   0.30542   0.12311  Uiso   1.00
H3342  H     0.72270   0.95757   0.43415   0.12311  Uiso   1.00
H3343  H     0.67349   0.88898   0.32671   0.12311  Uiso   1.00
H3344  H     0.69658   0.88652   0.31742   0.12311  Uiso   1.00
Fe3345 Fe    0.50000   0.86461   0.31250   0.12311  Uiso   1.00
Fe3346 Fe    0.62500   0.98961   0.31250   0.12311  Uiso   1.00
Fe3347 Fe    0.50000   0.88539   0.43750   0.12311  Uiso   1.00
Fe3348 Fe    0.62500   0.76039   0.43750   0.12311  Uiso   1.00
H3349  H     0.83362   0.94282   0.49459   0.12311  Uiso   0.00
C3350  C     0.84798   0.96826   0.45948   0.12311  Uiso   1.00
C3351  C     0.84983   0.93329   0.28017   0.12311  Uiso   1.00
C3352  C     0.84102   0.94667   0.49471   0.12311  Uiso   1.00
C3353  C     0.82622   0.93896   0.49448   0.12311  Uiso   1.00
C3354  C     0.80418   0.96632   0.47131   0.12311  Uiso   1.00
C3355  C     0.81789   0.96779   0.46580   0.12311  Uiso   1.00
N3356  N     0.86109   0.96823   0.47318   0.12311  Uiso   1.00
N3357  N     0.86224   0.94662   0.26686   0.12311  Uiso   1.00
H3358  H     0.84432   0.98111   0.43042   0.12311  Uiso   1.00
H3359  H     0.84770   0.91743   0.30915   0.12311  Uiso   1.00
H3360  H     0.79849   0.98602   0.45171   0.12311  Uiso   1.00
H3361  H     0.82158   0.98848   0.44242   0.12311  Uiso   1.00
H3362  H     0.95862   0.81782   0.49459   0.12311  Uiso   0.00
C3363  C     0.97298   0.84326   0.45948   0.12311  Uiso   1.00
C3364  C     0.97483   0.80829   0.28017   0.12311  Uiso   1.00
C3365  C     0.96602   0.82167   0.49471   0.12311  Uiso   1.00
C3366  C     0.95122   0.81396   0.49448   0.12311  Uiso   1.00
C3367  C     0.92918   0.84132   0.47131   0.12311  Uiso   1.00
C3368  C     0.94289   0.84279   0.46580   0.12311  Uiso   1.00
N3369  N     0.98609   0.84323   0.47318   0.12311  Uiso   1.00
N3370  N     0.98724   0.82162   0.26686   0.12311  Uiso   1.00
H3371  H     0.96932   0.85611   0.43042   0.12311  Uiso   1.00
H3372  H     0.97270   0.79243   0.30915   0.12311  Uiso   1.00
H3373  H     0.92349   0.86102   0.45171   0.12311  Uiso   1.00
H3374  H     0.94658   0.86348   0.44242   0.12311  Uiso   1.00
H3375  H     0.91638   0.94282   0.38041   0.12311  Uiso   0.00
C3376  C     0.90202   0.96826   0.41552   0.12311  Uiso   1.00
C3377  C     0.90017   0.93329   0.34483   0.12311  Uiso   1.00
C3378  C     0.90898   0.94667   0.38029   0.12311  Uiso   1.00
C3379  C     0.92378   0.93896   0.38052   0.12311  Uiso   1.00
C3380  C     0.94582   0.96632   0.40369   0.12311  Uiso   1.00
C3381  C     0.93211   0.96779   0.40920   0.12311  Uiso   1.00
N3382  N     0.88891   0.96823   0.40182   0.12311  Uiso   1.00
N3383  N     0.88776   0.94662   0.35814   0.12311  Uiso   1.00
H3384  H     0.90568   0.98111   0.44458   0.12311  Uiso   1.00
H3385  H     0.90230   0.91743   0.31585   0.12311  Uiso   1.00
H3386  H     0.95151   0.98602   0.42329   0.12311  Uiso   1.00
H3387  H     0.92842   0.98848   0.43258   0.12311  Uiso   1.00
H3388  H     0.79138   0.81782   0.38041   0.12311  Uiso   0.00
C3389  C     0.77702   0.84326   0.41552   0.12311  Uiso   1.00
C3390  C     0.77517   0.80829   0.34483   0.12311  Uiso   1.00
C3391  C     0.78398   0.82167   0.38029   0.12311  Uiso   1.00
C3392  C     0.79878   0.81396   0.38052   0.12311  Uiso   1.00
C3393  C     0.82082   0.84132   0.40369   0.12311  Uiso   1.00
C3394  C     0.80711   0.84279   0.40920   0.12311  Uiso   1.00
N3395  N     0.76391   0.84323   0.40182   0.12311  Uiso   1.00
N3396  N     0.76276   0.82162   0.35814   0.12311  Uiso   1.00
H3397  H     0.78068   0.85611   0.44458   0.12311  Uiso   1.00
H3398  H     0.77730   0.79243   0.31585   0.12311  Uiso   1.00
H3399  H     0.82651   0.86102   0.42329   0.12311  Uiso   1.00
H3400  H     0.80342   0.86348   0.43258   0.12311  Uiso   1.00
H3401  H     0.91638   0.80718   0.25541   0.12311  Uiso   0.00
C3402  C     0.90202   0.78174   0.29052   0.12311  Uiso   1.00
C3403  C     0.90017   0.81671   0.46983   0.12311  Uiso   1.00
C3404  C     0.90898   0.80333   0.25529   0.12311  Uiso   1.00
C3405  C     0.92378   0.81104   0.25552   0.12311  Uiso   1.00
C3406  C     0.94582   0.78368   0.27869   0.12311  Uiso   1.00
C3407  C     0.93211   0.78221   0.28420   0.12311  Uiso   1.00
N3408  N     0.88891   0.78177   0.27682   0.12311  Uiso   1.00
N3409  N     0.88776   0.80338   0.48314   0.12311  Uiso   1.00
H3410  H     0.90568   0.76889   0.31958   0.12311  Uiso   1.00
H3411  H     0.90230   0.83257   0.44085   0.12311  Uiso   1.00
H3412  H     0.95151   0.76398   0.29829   0.12311  Uiso   1.00
H3413  H     0.92842   0.76152   0.30758   0.12311  Uiso   1.00
H3414  H     0.79138   0.93218   0.25541   0.12311  Uiso   0.00
C3415  C     0.77702   0.90674   0.29052   0.12311  Uiso   1.00
C3416  C     0.77517   0.94171   0.46983   0.12311  Uiso   1.00
C3417  C     0.78398   0.92833   0.25529   0.12311  Uiso   1.00
C3418  C     0.79878   0.93604   0.25552   0.12311  Uiso   1.00
C3419  C     0.82082   0.90868   0.27869   0.12311  Uiso   1.00
C3420  C     0.80711   0.90721   0.28420   0.12311  Uiso   1.00
N3421  N     0.76391   0.90677   0.27682   0.12311  Uiso   1.00
N3422  N     0.76276   0.92838   0.48314   0.12311  Uiso   1.00
H3423  H     0.78068   0.89389   0.31958   0.12311  Uiso   1.00
H3424  H     0.77730   0.95757   0.44085   0.12311  Uiso   1.00
H3425  H     0.82651   0.88898   0.29829   0.12311  Uiso   1.00
H3426  H     0.80342   0.88652   0.30758   0.12311  Uiso   1.00
H3427  H     0.83362   0.80718   0.36959   0.12311  Uiso   0.00
C3428  C     0.84798   0.78174   0.33448   0.12311  Uiso   1.00
C3429  C     0.84983   0.81671   0.40517   0.12311  Uiso   1.00
C3430  C     0.84102   0.80333   0.36971   0.12311  Uiso   1.00
C3431  C     0.82622   0.81104   0.36948   0.12311  Uiso   1.00
C3432  C     0.80418   0.78368   0.34631   0.12311  Uiso   1.00
C3433  C     0.81789   0.78221   0.34080   0.12311  Uiso   1.00
N3434  N     0.86109   0.78177   0.34818   0.12311  Uiso   1.00
N3435  N     0.86224   0.80338   0.39186   0.12311  Uiso   1.00
H3436  H     0.84432   0.76889   0.30542   0.12311  Uiso   1.00
H3437  H     0.84770   0.83257   0.43415   0.12311  Uiso   1.00
H3438  H     0.79849   0.76398   0.32671   0.12311  Uiso   1.00
H3439  H     0.82158   0.76152   0.31742   0.12311  Uiso   1.00
H3440  H     0.95862   0.93218   0.36959   0.12311  Uiso   0.00
C3441  C     0.97298   0.90674   0.33448   0.12311  Uiso   1.00
C3442  C     0.97483   0.94171   0.40517   0.12311  Uiso   1.00
C3443  C     0.96602   0.92833   0.36971   0.12311  Uiso   1.00
C3444  C     0.95122   0.93604   0.36948   0.12311  Uiso   1.00
C3445  C     0.92918   0.90868   0.34631   0.12311  Uiso   1.00
C3446  C     0.94289   0.90721   0.34080   0.12311  Uiso   1.00
N3447  N     0.98609   0.90677   0.34818   0.12311  Uiso   1.00
N3448  N     0.98724   0.92838   0.39186   0.12311  Uiso   1.00
H3449  H     0.96932   0.89389   0.30542   0.12311  Uiso   1.00
H3450  H     0.97270   0.95757   0.43415   0.12311  Uiso   1.00
H3451  H     0.92349   0.88898   0.32671   0.12311  Uiso   1.00
H3452  H     0.94658   0.88652   0.31742   0.12311  Uiso   1.00
Fe3453 Fe    0.75000   0.86461   0.31250   0.12311  Uiso   1.00
Fe3454 Fe    0.87500   0.98961   0.31250   0.12311  Uiso   1.00
Fe3455 Fe    0.75000   0.88539   0.43750   0.12311  Uiso   1.00
Fe3456 Fe    0.87500   0.76039   0.43750   0.12311  Uiso   1.00
H3457  H     0.08362   0.19282   0.74459   0.12311  Uiso   0.00
C3458  C     0.09798   0.21826   0.70948   0.12311  Uiso   1.00
C3459  C     0.09983   0.18329   0.53017   0.12311  Uiso   1.00
C3460  C     0.09102   0.19667   0.74471   0.12311  Uiso   1.00
C3461  C     0.07622   0.18896   0.74448   0.12311  Uiso   1.00
C3462  C     0.05418   0.21632   0.72131   0.12311  Uiso   1.00
C3463  C     0.06789   0.21779   0.71580   0.12311  Uiso   1.00
N3464  N     0.11109   0.21823   0.72318   0.12311  Uiso   1.00
N3465  N     0.11224   0.19662   0.51686   0.12311  Uiso   1.00
H3466  H     0.09432   0.23111   0.68042   0.12311  Uiso   1.00
H3467  H     0.09770   0.16743   0.55915   0.12311  Uiso   1.00
H3468  H     0.04849   0.23602   0.70171   0.12311  Uiso   1.00
H3469  H     0.07158   0.23848   0.69242   0.12311  Uiso   1.00
H3470  H     0.20862   0.06782   0.74459   0.12311  Uiso   0.00
C3471  C     0.22298   0.09326   0.70948   0.12311  Uiso   1.00
C3472  C     0.22483   0.05829   0.53017   0.12311  Uiso   1.00
C3473  C     0.21602   0.07167   0.74471   0.12311  Uiso   1.00
C3474  C     0.20122   0.06396   0.74448   0.12311  Uiso   1.00
C3475  C     0.17918   0.09132   0.72131   0.12311  Uiso   1.00
C3476  C     0.19289   0.09279   0.71580   0.12311  Uiso   1.00
N3477  N     0.23609   0.09323   0.72318   0.12311  Uiso   1.00
N3478  N     0.23724   0.07162   0.51686   0.12311  Uiso   1.00
H3479  H     0.21932   0.10611   0.68042   0.12311  Uiso   1.00
H3480  H     0.22270   0.04243   0.55915   0.12311  Uiso   1.00
H3481  H     0.17349   0.11102   0.70171   0.12311  Uiso   1.00
H3482  H     0.19658   0.11348   0.69242   0.12311  Uiso   1.00
H3483  H     0.16638   0.19282   0.63041   0.12311  Uiso   0.00
C3484  C     0.15202   0.21826   0.66552   0.12311  Uiso   1.00
C3485  C     0.15017   0.18329   0.59483   0.12311  Uiso   1.00
C3486  C     0.15898   0.19667   0.63029   0.12311  Uiso   1.00
C3487  C     0.17378   0.18896   0.63052   0.12311  Uiso   1.00
C3488  C     0.19582   0.21632   0.65369   0.12311  Uiso   1.00
C3489  C     0.18211   0.21779   0.65920   0.12311  Uiso   1.00
N3490  N     0.13891   0.21823   0.65182   0.12311  Uiso   1.00
N3491  N     0.13776   0.19662   0.60814   0.12311  Uiso   1.00
H3492  H     0.15568   0.23111   0.69458   0.12311  Uiso   1.00
H3493  H     0.15230   0.16743   0.56585   0.12311  Uiso   1.00
H3494  H     0.20151   0.23602   0.67329   0.12311  Uiso   1.00
H3495  H     0.17842   0.23848   0.68258   0.12311  Uiso   1.00
H3496  H     0.04138   0.06782   0.63041   0.12311  Uiso   0.00
C3497  C     0.02702   0.09326   0.66552   0.12311  Uiso   1.00
C3498  C     0.02517   0.05829   0.59483   0.12311  Uiso   1.00
C3499  C     0.03398   0.07167   0.63029   0.12311  Uiso   1.00
C3500  C     0.04878   0.06396   0.63052   0.12311  Uiso   1.00
C3501  C     0.07082   0.09132   0.65369   0.12311  Uiso   1.00
C3502  C     0.05711   0.09279   0.65920   0.12311  Uiso   1.00
N3503  N     0.01391   0.09323   0.65182   0.12311  Uiso   1.00
N3504  N     0.01276   0.07162   0.60814   0.12311  Uiso   1.00
H3505  H     0.03068   0.10611   0.69458   0.12311  Uiso   1.00
H3506  H     0.02730   0.04243   0.56585   0.12311  Uiso   1.00
H3507  H     0.07651   0.11102   0.67329   0.12311  Uiso   1.00
H3508  H     0.05342   0.11348   0.68258   0.12311  Uiso   1.00
H3509  H     0.16638   0.05718   0.50541   0.12311  Uiso   0.00
C3510  C     0.15202   0.03174   0.54052   0.12311  Uiso   1.00
C3511  C     0.15017   0.06671   0.71983   0.12311  Uiso   1.00
C3512  C     0.15898   0.05333   0.50529   0.12311  Uiso   1.00
C3513  C     0.17378   0.06104   0.50552   0.12311  Uiso   1.00
C3514  C     0.19582   0.03368   0.52869   0.12311  Uiso   1.00
C3515  C     0.18211   0.03221   0.53420   0.12311  Uiso   1.00
N3516  N     0.13891   0.03177   0.52682   0.12311  Uiso   1.00
N3517  N     0.13776   0.05338   0.73314   0.12311  Uiso   1.00
H3518  H     0.15568   0.01889   0.56958   0.12311  Uiso   1.00
H3519  H     0.15230   0.08257   0.69085   0.12311  Uiso   1.00
H3520  H     0.20151   0.01398   0.54829   0.12311  Uiso   1.00
H3521  H     0.17842   0.01152   0.55758   0.12311  Uiso   1.00
H3522  H     0.04138   0.18218   0.50541   0.12311  Uiso   0.00
C3523  C     0.02702   0.15674   0.54052   0.12311  Uiso   1.00
C3524  C     0.02517   0.19171   0.71983   0.12311  Uiso   1.00
C3525  C     0.03398   0.17833   0.50529   0.12311  Uiso   1.00
C3526  C     0.04878   0.18604   0.50552   0.12311  Uiso   1.00
C3527  C     0.07082   0.15868   0.52869   0.12311  Uiso   1.00
C3528  C     0.05711   0.15721   0.53420   0.12311  Uiso   1.00
N3529  N     0.01391   0.15677   0.52682   0.12311  Uiso   1.00
N3530  N     0.01276   0.17838   0.73314   0.12311  Uiso   1.00
H3531  H     0.03068   0.14389   0.56958   0.12311  Uiso   1.00
H3532  H     0.02730   0.20757   0.69085   0.12311  Uiso   1.00
H3533  H     0.07651   0.13898   0.54829   0.12311  Uiso   1.00
H3534  H     0.05342   0.13652   0.55758   0.12311  Uiso   1.00
H3535  H     0.08362   0.05718   0.61959   0.12311  Uiso   0.00
C3536  C     0.09798   0.03174   0.58448   0.12311  Uiso   1.00
C3537  C     0.09983   0.06671   0.65517   0.12311  Uiso   1.00
C3538  C     0.09102   0.05333   0.61971   0.12311  Uiso   1.00
C3539  C     0.07622   0.06104   0.61948   0.12311  Uiso   1.00
C3540  C     0.05418   0.03368   0.59631   0.12311  Uiso   1.00
C3541  C     0.06789   0.03221   0.59080   0.12311  Uiso   1.00
N3542  N     0.11109   0.03177   0.59818   0.12311  Uiso   1.00
N3543  N     0.11224   0.05338   0.64186   0.12311  Uiso   1.00
H3544  H     0.09432   0.01889   0.55542   0.12311  Uiso   1.00
H3545  H     0.09770   0.08257   0.68415   0.12311  Uiso   1.00
H3546  H     0.04849   0.01398   0.57671   0.12311  Uiso   1.00
H3547  H     0.07158   0.01152   0.56742   0.12311  Uiso   1.00
H3548  H     0.20862   0.18218   0.61959   0.12311  Uiso   0.00
C3549  C     0.22298   0.15674   0.58448   0.12311  Uiso   1.00
C3550  C     0.22483   0.19171   0.65517   0.12311  Uiso   1.00
C3551  C     0.21602   0.17833   0.61971   0.12311  Uiso   1.00
C3552  C     0.20122   0.18604   0.61948   0.12311  Uiso   1.00
C3553  C     0.17918   0.15868   0.59631   0.12311  Uiso   1.00
C3554  C     0.19289   0.15721   0.59080   0.12311  Uiso   1.00
N3555  N     0.23609   0.15677   0.59818   0.12311  Uiso   1.00
N3556  N     0.23724   0.17838   0.64186   0.12311  Uiso   1.00
H3557  H     0.21932   0.14389   0.55542   0.12311  Uiso   1.00
H3558  H     0.22270   0.20757   0.68415   0.12311  Uiso   1.00
H3559  H     0.17349   0.13898   0.57671   0.12311  Uiso   1.00
H3560  H     0.19658   0.13652   0.56742   0.12311  Uiso   1.00
Fe3561 Fe    0.00000   0.11461   0.56250   0.12311  Uiso   1.00
Fe3562 Fe    0.12500   0.23961   0.56250   0.12311  Uiso   1.00
Fe3563 Fe    0.00000   0.13539   0.68750   0.12311  Uiso   1.00
Fe3564 Fe    0.12500   0.01039   0.68750   0.12311  Uiso   1.00
H3565  H     0.33362   0.19282   0.74459   0.12311  Uiso   0.00
C3566  C     0.34798   0.21826   0.70948   0.12311  Uiso   1.00
C3567  C     0.34983   0.18329   0.53017   0.12311  Uiso   1.00
C3568  C     0.34102   0.19667   0.74471   0.12311  Uiso   1.00
C3569  C     0.32622   0.18896   0.74448   0.12311  Uiso   1.00
C3570  C     0.30418   0.21632   0.72131   0.12311  Uiso   1.00
C3571  C     0.31789   0.21779   0.71580   0.12311  Uiso   1.00
N3572  N     0.36109   0.21823   0.72318   0.12311  Uiso   1.00
N3573  N     0.36224   0.19662   0.51686   0.12311  Uiso   1.00
H3574  H     0.34432   0.23111   0.68042   0.12311  Uiso   1.00
H3575  H     0.34770   0.16743   0.55915   0.12311  Uiso   1.00
H3576  H     0.29849   0.23602   0.70171   0.12311  Uiso   1.00
H3577  H     0.32158   0.23848   0.69242   0.12311  Uiso   1.00
H3578  H     0.45862   0.06782   0.74459   0.12311  Uiso   0.00
C3579  C     0.47298   0.09326   0.70948   0.12311  Uiso   1.00
C3580  C     0.47483   0.05829   0.53017   0.12311  Uiso   1.00
C3581  C     0.46602   0.07167   0.74471   0.12311  Uiso   1.00
C3582  C     0.45122   0.06396   0.74448   0.12311  Uiso   1.00
C3583  C     0.42918   0.09132   0.72131   0.12311  Uiso   1.00
C3584  C     0.44289   0.09279   0.71580   0.12311  Uiso   1.00
N3585  N     0.48609   0.09323   0.72318   0.12311  Uiso   1.00
N3586  N     0.48724   0.07162   0.51686   0.12311  Uiso   1.00
H3587  H     0.46932   0.10611   0.68042   0.12311  Uiso   1.00
H3588  H     0.47270   0.04243   0.55915   0.12311  Uiso   1.00
H3589  H     0.42349   0.11102   0.70171   0.12311  Uiso   1.00
H3590  H     0.44658   0.11348   0.69242   0.12311  Uiso   1.00
H3591  H     0.41638   0.19282   0.63041   0.12311  Uiso   0.00
C3592  C     0.40202   0.21826   0.66552   0.12311  Uiso   1.00
C3593  C     0.40017   0.18329   0.59483   0.12311  Uiso   1.00
C3594  C     0.40898   0.19667   0.63029   0.12311  Uiso   1.00
C3595  C     0.42378   0.18896   0.63052   0.12311  Uiso   1.00
C3596  C     0.44582   0.21632   0.65369   0.12311  Uiso   1.00
C3597  C     0.43211   0.21779   0.65920   0.12311  Uiso   1.00
N3598  N     0.38891   0.21823   0.65182   0.12311  Uiso   1.00
N3599  N     0.38776   0.19662   0.60814   0.12311  Uiso   1.00
H3600  H     0.40568   0.23111   0.69458   0.12311  Uiso   1.00
H3601  H     0.40230   0.16743   0.56585   0.12311  Uiso   1.00
H3602  H     0.45151   0.23602   0.67329   0.12311  Uiso   1.00
H3603  H     0.42842   0.23848   0.68258   0.12311  Uiso   1.00
H3604  H     0.29138   0.06782   0.63041   0.12311  Uiso   0.00
C3605  C     0.27702   0.09326   0.66552   0.12311  Uiso   1.00
C3606  C     0.27517   0.05829   0.59483   0.12311  Uiso   1.00
C3607  C     0.28398   0.07167   0.63029   0.12311  Uiso   1.00
C3608  C     0.29878   0.06396   0.63052   0.12311  Uiso   1.00
C3609  C     0.32082   0.09132   0.65369   0.12311  Uiso   1.00
C3610  C     0.30711   0.09279   0.65920   0.12311  Uiso   1.00
N3611  N     0.26391   0.09323   0.65182   0.12311  Uiso   1.00
N3612  N     0.26276   0.07162   0.60814   0.12311  Uiso   1.00
H3613  H     0.28068   0.10611   0.69458   0.12311  Uiso   1.00
H3614  H     0.27730   0.04243   0.56585   0.12311  Uiso   1.00
H3615  H     0.32651   0.11102   0.67329   0.12311  Uiso   1.00
H3616  H     0.30342   0.11348   0.68258   0.12311  Uiso   1.00
H3617  H     0.41638   0.05718   0.50541   0.12311  Uiso   0.00
C3618  C     0.40202   0.03174   0.54052   0.12311  Uiso   1.00
C3619  C     0.40017   0.06671   0.71983   0.12311  Uiso   1.00
C3620  C     0.40898   0.05333   0.50529   0.12311  Uiso   1.00
C3621  C     0.42378   0.06104   0.50552   0.12311  Uiso   1.00
C3622  C     0.44582   0.03368   0.52869   0.12311  Uiso   1.00
C3623  C     0.43211   0.03221   0.53420   0.12311  Uiso   1.00
N3624  N     0.38891   0.03177   0.52682   0.12311  Uiso   1.00
N3625  N     0.38776   0.05338   0.73314   0.12311  Uiso   1.00
H3626  H     0.40568   0.01889   0.56958   0.12311  Uiso   1.00
H3627  H     0.40230   0.08257   0.69085   0.12311  Uiso   1.00
H3628  H     0.45151   0.01398   0.54829   0.12311  Uiso   1.00
H3629  H     0.42842   0.01152   0.55758   0.12311  Uiso   1.00
H3630  H     0.29138   0.18218   0.50541   0.12311  Uiso   0.00
C3631  C     0.27702   0.15674   0.54052   0.12311  Uiso   1.00
C3632  C     0.27517   0.19171   0.71983   0.12311  Uiso   1.00
C3633  C     0.28398   0.17833   0.50529   0.12311  Uiso   1.00
C3634  C     0.29878   0.18604   0.50552   0.12311  Uiso   1.00
C3635  C     0.32082   0.15868   0.52869   0.12311  Uiso   1.00
C3636  C     0.30711   0.15721   0.53420   0.12311  Uiso   1.00
N3637  N     0.26391   0.15677   0.52682   0.12311  Uiso   1.00
N3638  N     0.26276   0.17838   0.73314   0.12311  Uiso   1.00
H3639  H     0.28068   0.14389   0.56958   0.12311  Uiso   1.00
H3640  H     0.27730   0.20757   0.69085   0.12311  Uiso   1.00
H3641  H     0.32651   0.13898   0.54829   0.12311  Uiso   1.00
H3642  H     0.30342   0.13652   0.55758   0.12311  Uiso   1.00
H3643  H     0.33362   0.05718   0.61959   0.12311  Uiso   0.00
C3644  C     0.34798   0.03174   0.58448   0.12311  Uiso   1.00
C3645  C     0.34983   0.06671   0.65517   0.12311  Uiso   1.00
C3646  C     0.34102   0.05333   0.61971   0.12311  Uiso   1.00
C3647  C     0.32622   0.06104   0.61948   0.12311  Uiso   1.00
C3648  C     0.30418   0.03368   0.59631   0.12311  Uiso   1.00
C3649  C     0.31789   0.03221   0.59080   0.12311  Uiso   1.00
N3650  N     0.36109   0.03177   0.59818   0.12311  Uiso   1.00
N3651  N     0.36224   0.05338   0.64186   0.12311  Uiso   1.00
H3652  H     0.34432   0.01889   0.55542   0.12311  Uiso   1.00
H3653  H     0.34770   0.08257   0.68415   0.12311  Uiso   1.00
H3654  H     0.29849   0.01398   0.57671   0.12311  Uiso   1.00
H3655  H     0.32158   0.01152   0.56742   0.12311  Uiso   1.00
H3656  H     0.45862   0.18218   0.61959   0.12311  Uiso   0.00
C3657  C     0.47298   0.15674   0.58448   0.12311  Uiso   1.00
C3658  C     0.47483   0.19171   0.65517   0.12311  Uiso   1.00
C3659  C     0.46602   0.17833   0.61971   0.12311  Uiso   1.00
C3660  C     0.45122   0.18604   0.61948   0.12311  Uiso   1.00
C3661  C     0.42918   0.15868   0.59631   0.12311  Uiso   1.00
C3662  C     0.44289   0.15721   0.59080   0.12311  Uiso   1.00
N3663  N     0.48609   0.15677   0.59818   0.12311  Uiso   1.00
N3664  N     0.48724   0.17838   0.64186   0.12311  Uiso   1.00
H3665  H     0.46932   0.14389   0.55542   0.12311  Uiso   1.00
H3666  H     0.47270   0.20757   0.68415   0.12311  Uiso   1.00
H3667  H     0.42349   0.13898   0.57671   0.12311  Uiso   1.00
H3668  H     0.44658   0.13652   0.56742   0.12311  Uiso   1.00
Fe3669 Fe    0.25000   0.11461   0.56250   0.12311  Uiso   1.00
Fe3670 Fe    0.37500   0.23961   0.56250   0.12311  Uiso   1.00
Fe3671 Fe    0.25000   0.13539   0.68750   0.12311  Uiso   1.00
Fe3672 Fe    0.37500   0.01039   0.68750   0.12311  Uiso   1.00
H3673  H     0.58362   0.19282   0.74459   0.12311  Uiso   0.00
C3674  C     0.59798   0.21826   0.70948   0.12311  Uiso   1.00
C3675  C     0.59983   0.18329   0.53017   0.12311  Uiso   1.00
C3676  C     0.59102   0.19667   0.74471   0.12311  Uiso   1.00
C3677  C     0.57622   0.18896   0.74448   0.12311  Uiso   1.00
C3678  C     0.55418   0.21632   0.72131   0.12311  Uiso   1.00
C3679  C     0.56789   0.21779   0.71580   0.12311  Uiso   1.00
N3680  N     0.61109   0.21823   0.72318   0.12311  Uiso   1.00
N3681  N     0.61224   0.19662   0.51686   0.12311  Uiso   1.00
H3682  H     0.59432   0.23111   0.68042   0.12311  Uiso   1.00
H3683  H     0.59770   0.16743   0.55915   0.12311  Uiso   1.00
H3684  H     0.54849   0.23602   0.70171   0.12311  Uiso   1.00
H3685  H     0.57158   0.23848   0.69242   0.12311  Uiso   1.00
H3686  H     0.70862   0.06782   0.74459   0.12311  Uiso   0.00
C3687  C     0.72298   0.09326   0.70948   0.12311  Uiso   1.00
C3688  C     0.72483   0.05829   0.53017   0.12311  Uiso   1.00
C3689  C     0.71602   0.07167   0.74471   0.12311  Uiso   1.00
C3690  C     0.70122   0.06396   0.74448   0.12311  Uiso   1.00
C3691  C     0.67918   0.09132   0.72131   0.12311  Uiso   1.00
C3692  C     0.69289   0.09279   0.71580   0.12311  Uiso   1.00
N3693  N     0.73609   0.09323   0.72318   0.12311  Uiso   1.00
N3694  N     0.73724   0.07162   0.51686   0.12311  Uiso   1.00
H3695  H     0.71932   0.10611   0.68042   0.12311  Uiso   1.00
H3696  H     0.72270   0.04243   0.55915   0.12311  Uiso   1.00
H3697  H     0.67349   0.11102   0.70171   0.12311  Uiso   1.00
H3698  H     0.69658   0.11348   0.69242   0.12311  Uiso   1.00
H3699  H     0.66638   0.19282   0.63041   0.12311  Uiso   0.00
C3700  C     0.65202   0.21826   0.66552   0.12311  Uiso   1.00
C3701  C     0.65017   0.18329   0.59483   0.12311  Uiso   1.00
C3702  C     0.65898   0.19667   0.63029   0.12311  Uiso   1.00
C3703  C     0.67378   0.18896   0.63052   0.12311  Uiso   1.00
C3704  C     0.69582   0.21632   0.65369   0.12311  Uiso   1.00
C3705  C     0.68211   0.21779   0.65920   0.12311  Uiso   1.00
N3706  N     0.63891   0.21823   0.65182   0.12311  Uiso   1.00
N3707  N     0.63776   0.19662   0.60814   0.12311  Uiso   1.00
H3708  H     0.65568   0.23111   0.69458   0.12311  Uiso   1.00
H3709  H     0.65230   0.16743   0.56585   0.12311  Uiso   1.00
H3710  H     0.70151   0.23602   0.67329   0.12311  Uiso   1.00
H3711  H     0.67842   0.23848   0.68258   0.12311  Uiso   1.00
H3712  H     0.54138   0.06782   0.63041   0.12311  Uiso   0.00
C3713  C     0.52702   0.09326   0.66552   0.12311  Uiso   1.00
C3714  C     0.52517   0.05829   0.59483   0.12311  Uiso   1.00
C3715  C     0.53398   0.07167   0.63029   0.12311  Uiso   1.00
C3716  C     0.54878   0.06396   0.63052   0.12311  Uiso   1.00
C3717  C     0.57082   0.09132   0.65369   0.12311  Uiso   1.00
C3718  C     0.55711   0.09279   0.65920   0.12311  Uiso   1.00
N3719  N     0.51391   0.09323   0.65182   0.12311  Uiso   1.00
N3720  N     0.51276   0.07162   0.60814   0.12311  Uiso   1.00
H3721  H     0.53068   0.10611   0.69458   0.12311  Uiso   1.00
H3722  H     0.52730   0.04243   0.56585   0.12311  Uiso   1.00
H3723  H     0.57651   0.11102   0.67329   0.12311  Uiso   1.00
H3724  H     0.55342   0.11348   0.68258   0.12311  Uiso   1.00
H3725  H     0.66638   0.05718   0.50541   0.12311  Uiso   0.00
C3726  C     0.65202   0.03174   0.54052   0.12311  Uiso   1.00
C3727  C     0.65017   0.06671   0.71983   0.12311  Uiso   1.00
C3728  C     0.65898   0.05333   0.50529   0.12311  Uiso   1.00
C3729  C     0.67378   0.06104   0.50552   0.12311  Uiso   1.00
C3730  C     0.69582   0.03368   0.52869   0.12311  Uiso   1.00
C3731  C     0.68211   0.03221   0.53420   0.12311  Uiso   1.00
N3732  N     0.63891   0.03177   0.52682   0.12311  Uiso   1.00
N3733  N     0.63776   0.05338   0.73314   0.12311  Uiso   1.00
H3734  H     0.65568   0.01889   0.56958   0.12311  Uiso   1.00
H3735  H     0.65230   0.08257   0.69085   0.12311  Uiso   1.00
H3736  H     0.70151   0.01398   0.54829   0.12311  Uiso   1.00
H3737  H     0.67842   0.01152   0.55758   0.12311  Uiso   1.00
H3738  H     0.54138   0.18218   0.50541   0.12311  Uiso   0.00
C3739  C     0.52702   0.15674   0.54052   0.12311  Uiso   1.00
C3740  C     0.52517   0.19171   0.71983   0.12311  Uiso   1.00
C3741  C     0.53398   0.17833   0.50529   0.12311  Uiso   1.00
C3742  C     0.54878   0.18604   0.50552   0.12311  Uiso   1.00
C3743  C     0.57082   0.15868   0.52869   0.12311  Uiso   1.00
C3744  C     0.55711   0.15721   0.53420   0.12311  Uiso   1.00
N3745  N     0.51391   0.15677   0.52682   0.12311  Uiso   1.00
N3746  N     0.51276   0.17838   0.73314   0.12311  Uiso   1.00
H3747  H     0.53068   0.14389   0.56958   0.12311  Uiso   1.00
H3748  H     0.52730   0.20757   0.69085   0.12311  Uiso   1.00
H3749  H     0.57651   0.13898   0.54829   0.12311  Uiso   1.00
H3750  H     0.55342   0.13652   0.55758   0.12311  Uiso   1.00
H3751  H     0.58362   0.05718   0.61959   0.12311  Uiso   0.00
C3752  C     0.59798   0.03174   0.58448   0.12311  Uiso   1.00
C3753  C     0.59983   0.06671   0.65517   0.12311  Uiso   1.00
C3754  C     0.59102   0.05333   0.61971   0.12311  Uiso   1.00
C3755  C     0.57622   0.06104   0.61948   0.12311  Uiso   1.00
C3756  C     0.55418   0.03368   0.59631   0.12311  Uiso   1.00
C3757  C     0.56789   0.03221   0.59080   0.12311  Uiso   1.00
N3758  N     0.61109   0.03177   0.59818   0.12311  Uiso   1.00
N3759  N     0.61224   0.05338   0.64186   0.12311  Uiso   1.00
H3760  H     0.59432   0.01889   0.55542   0.12311  Uiso   1.00
H3761  H     0.59770   0.08257   0.68415   0.12311  Uiso   1.00
H3762  H     0.54849   0.01398   0.57671   0.12311  Uiso   1.00
H3763  H     0.57158   0.01152   0.56742   0.12311  Uiso   1.00
H3764  H     0.70862   0.18218   0.61959   0.12311  Uiso   0.00
C3765  C     0.72298   0.15674   0.58448   0.12311  Uiso   1.00
C3766  C     0.72483   0.19171   0.65517   0.12311  Uiso   1.00
C3767  C     0.71602   0.17833   0.61971   0.12311  Uiso   1.00
C3768  C     0.70122   0.18604   0.61948   0.12311  Uiso   1.00
C3769  C     0.67918   0.15868   0.59631   0.12311  Uiso   1.00
C3770  C     0.69289   0.15721   0.59080   0.12311  Uiso   1.00
N3771  N     0.73609   0.15677   0.59818   0.12311  Uiso   1.00
N3772  N     0.73724   0.17838   0.64186   0.12311  Uiso   1.00
H3773  H     0.71932   0.14389   0.55542   0.12311  Uiso   1.00
H3774  H     0.72270   0.20757   0.68415   0.12311  Uiso   1.00
H3775  H     0.67349   0.13898   0.57671   0.12311  Uiso   1.00
H3776  H     0.69658   0.13652   0.56742   0.12311  Uiso   1.00
Fe3777 Fe    0.50000   0.11461   0.56250   0.12311  Uiso   1.00
Fe3778 Fe    0.62500   0.23961   0.56250   0.12311  Uiso   1.00
Fe3779 Fe    0.50000   0.13539   0.68750   0.12311  Uiso   1.00
Fe3780 Fe    0.62500   0.01039   0.68750   0.12311  Uiso   1.00
H3781  H     0.83362   0.19282   0.74459   0.12311  Uiso   0.00
C3782  C     0.84798   0.21826   0.70948   0.12311  Uiso   1.00
C3783  C     0.84983   0.18329   0.53017   0.12311  Uiso   1.00
C3784  C     0.84102   0.19667   0.74471   0.12311  Uiso   1.00
C3785  C     0.82622   0.18896   0.74448   0.12311  Uiso   1.00
C3786  C     0.80418   0.21632   0.72131   0.12311  Uiso   1.00
C3787  C     0.81789   0.21779   0.71580   0.12311  Uiso   1.00
N3788  N     0.86109   0.21823   0.72318   0.12311  Uiso   1.00
N3789  N     0.86224   0.19662   0.51686   0.12311  Uiso   1.00
H3790  H     0.84432   0.23111   0.68042   0.12311  Uiso   1.00
H3791  H     0.84770   0.16743   0.55915   0.12311  Uiso   1.00
H3792  H     0.79849   0.23602   0.70171   0.12311  Uiso   1.00
H3793  H     0.82158   0.23848   0.69242   0.12311  Uiso   1.00
H3794  H     0.95862   0.06782   0.74459   0.12311  Uiso   0.00
C3795  C     0.97298   0.09326   0.70948   0.12311  Uiso   1.00
C3796  C     0.97483   0.05829   0.53017   0.12311  Uiso   1.00
C3797  C     0.96602   0.07167   0.74471   0.12311  Uiso   1.00
C3798  C     0.95122   0.06396   0.74448   0.12311  Uiso   1.00
C3799  C     0.92918   0.09132   0.72131   0.12311  Uiso   1.00
C3800  C     0.94289   0.09279   0.71580   0.12311  Uiso   1.00
N3801  N     0.98609   0.09323   0.72318   0.12311  Uiso   1.00
N3802  N     0.98724   0.07162   0.51686   0.12311  Uiso   1.00
H3803  H     0.96932   0.10611   0.68042   0.12311  Uiso   1.00
H3804  H     0.97270   0.04243   0.55915   0.12311  Uiso   1.00
H3805  H     0.92349   0.11102   0.70171   0.12311  Uiso   1.00
H3806  H     0.94658   0.11348   0.69242   0.12311  Uiso   1.00
H3807  H     0.91638   0.19282   0.63041   0.12311  Uiso   0.00
C3808  C     0.90202   0.21826   0.66552   0.12311  Uiso   1.00
C3809  C     0.90017   0.18329   0.59483   0.12311  Uiso   1.00
C3810  C     0.90898   0.19667   0.63029   0.12311  Uiso   1.00
C3811  C     0.92378   0.18896   0.63052   0.12311  Uiso   1.00
C3812  C     0.94582   0.21632   0.65369   0.12311  Uiso   1.00
C3813  C     0.93211   0.21779   0.65920   0.12311  Uiso   1.00
N3814  N     0.88891   0.21823   0.65182   0.12311  Uiso   1.00
N3815  N     0.88776   0.19662   0.60814   0.12311  Uiso   1.00
H3816  H     0.90568   0.23111   0.69458   0.12311  Uiso   1.00
H3817  H     0.90230   0.16743   0.56585   0.12311  Uiso   1.00
H3818  H     0.95151   0.23602   0.67329   0.12311  Uiso   1.00
H3819  H     0.92842   0.23848   0.68258   0.12311  Uiso   1.00
H3820  H     0.79138   0.06782   0.63041   0.12311  Uiso   0.00
C3821  C     0.77702   0.09326   0.66552   0.12311  Uiso   1.00
C3822  C     0.77517   0.05829   0.59483   0.12311  Uiso   1.00
C3823  C     0.78398   0.07167   0.63029   0.12311  Uiso   1.00
C3824  C     0.79878   0.06396   0.63052   0.12311  Uiso   1.00
C3825  C     0.82082   0.09132   0.65369   0.12311  Uiso   1.00
C3826  C     0.80711   0.09279   0.65920   0.12311  Uiso   1.00
N3827  N     0.76391   0.09323   0.65182   0.12311  Uiso   1.00
N3828  N     0.76276   0.07162   0.60814   0.12311  Uiso   1.00
H3829  H     0.78068   0.10611   0.69458   0.12311  Uiso   1.00
H3830  H     0.77730   0.04243   0.56585   0.12311  Uiso   1.00
H3831  H     0.82651   0.11102   0.67329   0.12311  Uiso   1.00
H3832  H     0.80342   0.11348   0.68258   0.12311  Uiso   1.00
H3833  H     0.91638   0.05718   0.50541   0.12311  Uiso   0.00
C3834  C     0.90202   0.03174   0.54052   0.12311  Uiso   1.00
C3835  C     0.90017   0.06671   0.71983   0.12311  Uiso   1.00
C3836  C     0.90898   0.05333   0.50529   0.12311  Uiso   1.00
C3837  C     0.92378   0.06104   0.50552   0.12311  Uiso   1.00
C3838  C     0.94582   0.03368   0.52869   0.12311  Uiso   1.00
C3839  C     0.93211   0.03221   0.53420   0.12311  Uiso   1.00
N3840  N     0.88891   0.03177   0.52682   0.12311  Uiso   1.00
N3841  N     0.88776   0.05338   0.73314   0.12311  Uiso   1.00
H3842  H     0.90568   0.01889   0.56958   0.12311  Uiso   1.00
H3843  H     0.90230   0.08257   0.69085   0.12311  Uiso   1.00
H3844  H     0.95151   0.01398   0.54829   0.12311  Uiso   1.00
H3845  H     0.92842   0.01152   0.55758   0.12311  Uiso   1.00
H3846  H     0.79138   0.18218   0.50541   0.12311  Uiso   0.00
C3847  C     0.77702   0.15674   0.54052   0.12311  Uiso   1.00
C3848  C     0.77517   0.19171   0.71983   0.12311  Uiso   1.00
C3849  C     0.78398   0.17833   0.50529   0.12311  Uiso   1.00
C3850  C     0.79878   0.18604   0.50552   0.12311  Uiso   1.00
C3851  C     0.82082   0.15868   0.52869   0.12311  Uiso   1.00
C3852  C     0.80711   0.15721   0.53420   0.12311  Uiso   1.00
N3853  N     0.76391   0.15677   0.52682   0.12311  Uiso   1.00
N3854  N     0.76276   0.17838   0.73314   0.12311  Uiso   1.00
H3855  H     0.78068   0.14389   0.56958   0.12311  Uiso   1.00
H3856  H     0.77730   0.20757   0.69085   0.12311  Uiso   1.00
H3857  H     0.82651   0.13898   0.54829   0.12311  Uiso   1.00
H3858  H     0.80342   0.13652   0.55758   0.12311  Uiso   1.00
H3859  H     0.83362   0.05718   0.61959   0.12311  Uiso   0.00
C3860  C     0.84798   0.03174   0.58448   0.12311  Uiso   1.00
C3861  C     0.84983   0.06671   0.65517   0.12311  Uiso   1.00
C3862  C     0.84102   0.05333   0.61971   0.12311  Uiso   1.00
C3863  C     0.82622   0.06104   0.61948   0.12311  Uiso   1.00
C3864  C     0.80418   0.03368   0.59631   0.12311  Uiso   1.00
C3865  C     0.81789   0.03221   0.59080   0.12311  Uiso   1.00
N3866  N     0.86109   0.03177   0.59818   0.12311  Uiso   1.00
N3867  N     0.86224   0.05338   0.64186   0.12311  Uiso   1.00
H3868  H     0.84432   0.01889   0.55542   0.12311  Uiso   1.00
H3869  H     0.84770   0.08257   0.68415   0.12311  Uiso   1.00
H3870  H     0.79849   0.01398   0.57671   0.12311  Uiso   1.00
H3871  H     0.82158   0.01152   0.56742   0.12311  Uiso   1.00
H3872  H     0.95862   0.18218   0.61959   0.12311  Uiso   0.00
C3873  C     0.97298   0.15674   0.58448   0.12311  Uiso   1.00
C3874  C     0.97483   0.19171   0.65517   0.12311  Uiso   1.00
C3875  C     0.96602   0.17833   0.61971   0.12311  Uiso   1.00
C3876  C     0.95122   0.18604   0.61948   0.12311  Uiso   1.00
C3877  C     0.92918   0.15868   0.59631   0.12311  Uiso   1.00
C3878  C     0.94289   0.15721   0.59080   0.12311  Uiso   1.00
N3879  N     0.98609   0.15677   0.59818   0.12311  Uiso   1.00
N3880  N     0.98724   0.17838   0.64186   0.12311  Uiso   1.00
H3881  H     0.96932   0.14389   0.55542   0.12311  Uiso   1.00
H3882  H     0.97270   0.20757   0.68415   0.12311  Uiso   1.00
H3883  H     0.92349   0.13898   0.57671   0.12311  Uiso   1.00
H3884  H     0.94658   0.13652   0.56742   0.12311  Uiso   1.00
Fe3885 Fe    0.75000   0.11461   0.56250   0.12311  Uiso   1.00
Fe3886 Fe    0.87500   0.23961   0.56250   0.12311  Uiso   1.00
Fe3887 Fe    0.75000   0.13539   0.68750   0.12311  Uiso   1.00
Fe3888 Fe    0.87500   0.01039   0.68750   0.12311  Uiso   1.00
H3889  H     0.08362   0.44282   0.74459   0.12311  Uiso   0.00
C3890  C     0.09798   0.46826   0.70948   0.12311  Uiso   1.00
C3891  C     0.09983   0.43329   0.53017   0.12311  Uiso   1.00
C3892  C     0.09102   0.44667   0.74471   0.12311  Uiso   1.00
C3893  C     0.07622   0.43896   0.74448   0.12311  Uiso   1.00
C3894  C     0.05418   0.46632   0.72131   0.12311  Uiso   1.00
C3895  C     0.06789   0.46779   0.71580   0.12311  Uiso   1.00
N3896  N     0.11109   0.46823   0.72318   0.12311  Uiso   1.00
N3897  N     0.11224   0.44662   0.51686   0.12311  Uiso   1.00
H3898  H     0.09432   0.48111   0.68042   0.12311  Uiso   1.00
H3899  H     0.09770   0.41743   0.55915   0.12311  Uiso   1.00
H3900  H     0.04849   0.48602   0.70171   0.12311  Uiso   1.00
H3901  H     0.07158   0.48848   0.69242   0.12311  Uiso   1.00
H3902  H     0.20862   0.31782   0.74459   0.12311  Uiso   0.00
C3903  C     0.22298   0.34326   0.70948   0.12311  Uiso   1.00
C3904  C     0.22483   0.30829   0.53017   0.12311  Uiso   1.00
C3905  C     0.21602   0.32167   0.74471   0.12311  Uiso   1.00
C3906  C     0.20122   0.31396   0.74448   0.12311  Uiso   1.00
C3907  C     0.17918   0.34132   0.72131   0.12311  Uiso   1.00
C3908  C     0.19289   0.34279   0.71580   0.12311  Uiso   1.00
N3909  N     0.23609   0.34323   0.72318   0.12311  Uiso   1.00
N3910  N     0.23724   0.32162   0.51686   0.12311  Uiso   1.00
H3911  H     0.21932   0.35611   0.68042   0.12311  Uiso   1.00
H3912  H     0.22270   0.29243   0.55915   0.12311  Uiso   1.00
H3913  H     0.17349   0.36102   0.70171   0.12311  Uiso   1.00
H3914  H     0.19658   0.36348   0.69242   0.12311  Uiso   1.00
H3915  H     0.16638   0.44282   0.63041   0.12311  Uiso   0.00
C3916  C     0.15202   0.46826   0.66552   0.12311  Uiso   1.00
C3917  C     0.15017   0.43329   0.59483   0.12311  Uiso   1.00
C3918  C     0.15898   0.44667   0.63029   0.12311  Uiso   1.00
C3919  C     0.17378   0.43896   0.63052   0.12311  Uiso   1.00
C3920  C     0.19582   0.46632   0.65369   0.12311  Uiso   1.00
C3921  C     0.18211   0.46779   0.65920   0.12311  Uiso   1.00
N3922  N     0.13891   0.46823   0.65182   0.12311  Uiso   1.00
N3923  N     0.13776   0.44662   0.60814   0.12311  Uiso   1.00
H3924  H     0.15568   0.48111   0.69458   0.12311  Uiso   1.00
H3925  H     0.15230   0.41743   0.56585   0.12311  Uiso   1.00
H3926  H     0.20151   0.48602   0.67329   0.12311  Uiso   1.00
H3927  H     0.17842   0.48848   0.68258   0.12311  Uiso   1.00
H3928  H     0.04138   0.31782   0.63041   0.12311  Uiso   0.00
C3929  C     0.02702   0.34326   0.66552   0.12311  Uiso   1.00
C3930  C     0.02517   0.30829   0.59483   0.12311  Uiso   1.00
C3931  C     0.03398   0.32167   0.63029   0.12311  Uiso   1.00
C3932  C     0.04878   0.31396   0.63052   0.12311  Uiso   1.00
C3933  C     0.07082   0.34132   0.65369   0.12311  Uiso   1.00
C3934  C     0.05711   0.34279   0.65920   0.12311  Uiso   1.00
N3935  N     0.01391   0.34323   0.65182   0.12311  Uiso   1.00
N3936  N     0.01276   0.32162   0.60814   0.12311  Uiso   1.00
H3937  H     0.03068   0.35611   0.69458   0.12311  Uiso   1.00
H3938  H     0.02730   0.29243   0.56585   0.12311  Uiso   1.00
H3939  H     0.07651   0.36102   0.67329   0.12311  Uiso   1.00
H3940  H     0.05342   0.36348   0.68258   0.12311  Uiso   1.00
H3941  H     0.16638   0.30718   0.50541   0.12311  Uiso   0.00
C3942  C     0.15202   0.28174   0.54052   0.12311  Uiso   1.00
C3943  C     0.15017   0.31671   0.71983   0.12311  Uiso   1.00
C3944  C     0.15898   0.30333   0.50529   0.12311  Uiso   1.00
C3945  C     0.17378   0.31104   0.50552   0.12311  Uiso   1.00
C3946  C     0.19582   0.28368   0.52869   0.12311  Uiso   1.00
C3947  C     0.18211   0.28221   0.53420   0.12311  Uiso   1.00
N3948  N     0.13891   0.28177   0.52682   0.12311  Uiso   1.00
N3949  N     0.13776   0.30338   0.73314   0.12311  Uiso   1.00
H3950  H     0.15568   0.26889   0.56958   0.12311  Uiso   1.00
H3951  H     0.15230   0.33257   0.69085   0.12311  Uiso   1.00
H3952  H     0.20151   0.26398   0.54829   0.12311  Uiso   1.00
H3953  H     0.17842   0.26152   0.55758   0.12311  Uiso   1.00
H3954  H     0.04138   0.43218   0.50541   0.12311  Uiso   0.00
C3955  C     0.02702   0.40674   0.54052   0.12311  Uiso   1.00
C3956  C     0.02517   0.44171   0.71983   0.12311  Uiso   1.00
C3957  C     0.03398   0.42833   0.50529   0.12311  Uiso   1.00
C3958  C     0.04878   0.43604   0.50552   0.12311  Uiso   1.00
C3959  C     0.07082   0.40868   0.52869   0.12311  Uiso   1.00
C3960  C     0.05711   0.40721   0.53420   0.12311  Uiso   1.00
N3961  N     0.01391   0.40677   0.52682   0.12311  Uiso   1.00
N3962  N     0.01276   0.42838   0.73314   0.12311  Uiso   1.00
H3963  H     0.03068   0.39389   0.56958   0.12311  Uiso   1.00
H3964  H     0.02730   0.45757   0.69085   0.12311  Uiso   1.00
H3965  H     0.07651   0.38898   0.54829   0.12311  Uiso   1.00
H3966  H     0.05342   0.38652   0.55758   0.12311  Uiso   1.00
H3967  H     0.08362   0.30718   0.61959   0.12311  Uiso   0.00
C3968  C     0.09798   0.28174   0.58448   0.12311  Uiso   1.00
C3969  C     0.09983   0.31671   0.65517   0.12311  Uiso   1.00
C3970  C     0.09102   0.30333   0.61971   0.12311  Uiso   1.00
C3971  C     0.07622   0.31104   0.61948   0.12311  Uiso   1.00
C3972  C     0.05418   0.28368   0.59631   0.12311  Uiso   1.00
C3973  C     0.06789   0.28221   0.59080   0.12311  Uiso   1.00
N3974  N     0.11109   0.28177   0.59818   0.12311  Uiso   1.00
N3975  N     0.11224   0.30338   0.64186   0.12311  Uiso   1.00
H3976  H     0.09432   0.26889   0.55542   0.12311  Uiso   1.00
H3977  H     0.09770   0.33257   0.68415   0.12311  Uiso   1.00
H3978  H     0.04849   0.26398   0.57671   0.12311  Uiso   1.00
H3979  H     0.07158   0.26152   0.56742   0.12311  Uiso   1.00
H3980  H     0.20862   0.43218   0.61959   0.12311  Uiso   0.00
C3981  C     0.22298   0.40674   0.58448   0.12311  Uiso   1.00
C3982  C     0.22483   0.44171   0.65517   0.12311  Uiso   1.00
C3983  C     0.21602   0.42833   0.61971   0.12311  Uiso   1.00
C3984  C     0.20122   0.43604   0.61948   0.12311  Uiso   1.00
C3985  C     0.17918   0.40868   0.59631   0.12311  Uiso   1.00
C3986  C     0.19289   0.40721   0.59080   0.12311  Uiso   1.00
N3987  N     0.23609   0.40677   0.59818   0.12311  Uiso   1.00
N3988  N     0.23724   0.42838   0.64186   0.12311  Uiso   1.00
H3989  H     0.21932   0.39389   0.55542   0.12311  Uiso   1.00
H3990  H     0.22270   0.45757   0.68415   0.12311  Uiso   1.00
H3991  H     0.17349   0.38898   0.57671   0.12311  Uiso   1.00
H3992  H     0.19658   0.38652   0.56742   0.12311  Uiso   1.00
Fe3993 Fe    0.00000   0.36461   0.56250   0.12311  Uiso   1.00
Fe3994 Fe    0.12500   0.48961   0.56250   0.12311  Uiso   1.00
Fe3995 Fe    0.00000   0.38539   0.68750   0.12311  Uiso   1.00
Fe3996 Fe    0.12500   0.26039   0.68750   0.12311  Uiso   1.00
H3997  H     0.33362   0.44282   0.74459   0.12311  Uiso   0.00
C3998  C     0.34798   0.46826   0.70948   0.12311  Uiso   1.00
C3999  C     0.34983   0.43329   0.53017   0.12311  Uiso   1.00
C4000  C     0.34102   0.44667   0.74471   0.12311  Uiso   1.00
C4001  C     0.32622   0.43896   0.74448   0.12311  Uiso   1.00
C4002  C     0.30418   0.46632   0.72131   0.12311  Uiso   1.00
C4003  C     0.31789   0.46779   0.71580   0.12311  Uiso   1.00
N4004  N     0.36109   0.46823   0.72318   0.12311  Uiso   1.00
N4005  N     0.36224   0.44662   0.51686   0.12311  Uiso   1.00
H4006  H     0.34432   0.48111   0.68042   0.12311  Uiso   1.00
H4007  H     0.34770   0.41743   0.55915   0.12311  Uiso   1.00
H4008  H     0.29849   0.48602   0.70171   0.12311  Uiso   1.00
H4009  H     0.32158   0.48848   0.69242   0.12311  Uiso   1.00
H4010  H     0.45862   0.31782   0.74459   0.12311  Uiso   0.00
C4011  C     0.47298   0.34326   0.70948   0.12311  Uiso   1.00
C4012  C     0.47483   0.30829   0.53017   0.12311  Uiso   1.00
C4013  C     0.46602   0.32167   0.74471   0.12311  Uiso   1.00
C4014  C     0.45122   0.31396   0.74448   0.12311  Uiso   1.00
C4015  C     0.42918   0.34132   0.72131   0.12311  Uiso   1.00
C4016  C     0.44289   0.34279   0.71580   0.12311  Uiso   1.00
N4017  N     0.48609   0.34323   0.72318   0.12311  Uiso   1.00
N4018  N     0.48724   0.32162   0.51686   0.12311  Uiso   1.00
H4019  H     0.46932   0.35611   0.68042   0.12311  Uiso   1.00
H4020  H     0.47270   0.29243   0.55915   0.12311  Uiso   1.00
H4021  H     0.42349   0.36102   0.70171   0.12311  Uiso   1.00
H4022  H     0.44658   0.36348   0.69242   0.12311  Uiso   1.00
H4023  H     0.41638   0.44282   0.63041   0.12311  Uiso   0.00
C4024  C     0.40202   0.46826   0.66552   0.12311  Uiso   1.00
C4025  C     0.40017   0.43329   0.59483   0.12311  Uiso   1.00
C4026  C     0.40898   0.44667   0.63029   0.12311  Uiso   1.00
C4027  C     0.42378   0.43896   0.63052   0.12311  Uiso   1.00
C4028  C     0.44582   0.46632   0.65369   0.12311  Uiso   1.00
C4029  C     0.43211   0.46779   0.65920   0.12311  Uiso   1.00
N4030  N     0.38891   0.46823   0.65182   0.12311  Uiso   1.00
N4031  N     0.38776   0.44662   0.60814   0.12311  Uiso   1.00
H4032  H     0.40568   0.48111   0.69458   0.12311  Uiso   1.00
H4033  H     0.40230   0.41743   0.56585   0.12311  Uiso   1.00
H4034  H     0.45151   0.48602   0.67329   0.12311  Uiso   1.00
H4035  H     0.42842   0.48848   0.68258   0.12311  Uiso   1.00
H4036  H     0.29138   0.31782   0.63041   0.12311  Uiso   0.00
C4037  C     0.27702   0.34326   0.66552   0.12311  Uiso   1.00
C4038  C     0.27517   0.30829   0.59483   0.12311  Uiso   1.00
C4039  C     0.28398   0.32167   0.63029   0.12311  Uiso   1.00
C4040  C     0.29878   0.31396   0.63052   0.12311  Uiso   1.00
C4041  C     0.32082   0.34132   0.65369   0.12311  Uiso   1.00
C4042  C     0.30711   0.34279   0.65920   0.12311  Uiso   1.00
N4043  N     0.26391   0.34323   0.65182   0.12311  Uiso   1.00
N4044  N     0.26276   0.32162   0.60814   0.12311  Uiso   1.00
H4045  H     0.28068   0.35611   0.69458   0.12311  Uiso   1.00
H4046  H     0.27730   0.29243   0.56585   0.12311  Uiso   1.00
H4047  H     0.32651   0.36102   0.67329   0.12311  Uiso   1.00
H4048  H     0.30342   0.36348   0.68258   0.12311  Uiso   1.00
H4049  H     0.41638   0.30718   0.50541   0.12311  Uiso   0.00
C4050  C     0.40202   0.28174   0.54052   0.12311  Uiso   1.00
C4051  C     0.40017   0.31671   0.71983   0.12311  Uiso   1.00
C4052  C     0.40898   0.30333   0.50529   0.12311  Uiso   1.00
C4053  C     0.42378   0.31104   0.50552   0.12311  Uiso   1.00
C4054  C     0.44582   0.28368   0.52869   0.12311  Uiso   1.00
C4055  C     0.43211   0.28221   0.53420   0.12311  Uiso   1.00
N4056  N     0.38891   0.28177   0.52682   0.12311  Uiso   1.00
N4057  N     0.38776   0.30338   0.73314   0.12311  Uiso   1.00
H4058  H     0.40568   0.26889   0.56958   0.12311  Uiso   1.00
H4059  H     0.40230   0.33257   0.69085   0.12311  Uiso   1.00
H4060  H     0.45151   0.26398   0.54829   0.12311  Uiso   1.00
H4061  H     0.42842   0.26152   0.55758   0.12311  Uiso   1.00
H4062  H     0.29138   0.43218   0.50541   0.12311  Uiso   0.00
C4063  C     0.27702   0.40674   0.54052   0.12311  Uiso   1.00
C4064  C     0.27517   0.44171   0.71983   0.12311  Uiso   1.00
C4065  C     0.28398   0.42833   0.50529   0.12311  Uiso   1.00
C4066  C     0.29878   0.43604   0.50552   0.12311  Uiso   1.00
C4067  C     0.32082   0.40868   0.52869   0.12311  Uiso   1.00
C4068  C     0.30711   0.40721   0.53420   0.12311  Uiso   1.00
N4069  N     0.26391   0.40677   0.52682   0.12311  Uiso   1.00
N4070  N     0.26276   0.42838   0.73314   0.12311  Uiso   1.00
H4071  H     0.28068   0.39389   0.56958   0.12311  Uiso   1.00
H4072  H     0.27730   0.45757   0.69085   0.12311  Uiso   1.00
H4073  H     0.32651   0.38898   0.54829   0.12311  Uiso   1.00
H4074  H     0.30342   0.38652   0.55758   0.12311  Uiso   1.00
H4075  H     0.33362   0.30718   0.61959   0.12311  Uiso   0.00
C4076  C     0.34798   0.28174   0.58448   0.12311  Uiso   1.00
C4077  C     0.34983   0.31671   0.65517   0.12311  Uiso   1.00
C4078  C     0.34102   0.30333   0.61971   0.12311  Uiso   1.00
C4079  C     0.32622   0.31104   0.61948   0.12311  Uiso   1.00
C4080  C     0.30418   0.28368   0.59631   0.12311  Uiso   1.00
C4081  C     0.31789   0.28221   0.59080   0.12311  Uiso   1.00
N4082  N     0.36109   0.28177   0.59818   0.12311  Uiso   1.00
N4083  N     0.36224   0.30338   0.64186   0.12311  Uiso   1.00
H4084  H     0.34432   0.26889   0.55542   0.12311  Uiso   1.00
H4085  H     0.34770   0.33257   0.68415   0.12311  Uiso   1.00
H4086  H     0.29849   0.26398   0.57671   0.12311  Uiso   1.00
H4087  H     0.32158   0.26152   0.56742   0.12311  Uiso   1.00
H4088  H     0.45862   0.43218   0.61959   0.12311  Uiso   0.00
C4089  C     0.47298   0.40674   0.58448   0.12311  Uiso   1.00
C4090  C     0.47483   0.44171   0.65517   0.12311  Uiso   1.00
C4091  C     0.46602   0.42833   0.61971   0.12311  Uiso   1.00
C4092  C     0.45122   0.43604   0.61948   0.12311  Uiso   1.00
C4093  C     0.42918   0.40868   0.59631   0.12311  Uiso   1.00
C4094  C     0.44289   0.40721   0.59080   0.12311  Uiso   1.00
N4095  N     0.48609   0.40677   0.59818   0.12311  Uiso   1.00
N4096  N     0.48724   0.42838   0.64186   0.12311  Uiso   1.00
H4097  H     0.46932   0.39389   0.55542   0.12311  Uiso   1.00
H4098  H     0.47270   0.45757   0.68415   0.12311  Uiso   1.00
H4099  H     0.42349   0.38898   0.57671   0.12311  Uiso   1.00
H4100  H     0.44658   0.38652   0.56742   0.12311  Uiso   1.00
Fe4101 Fe    0.25000   0.36461   0.56250   0.12311  Uiso   1.00
Fe4102 Fe    0.37500   0.48961   0.56250   0.12311  Uiso   1.00
Fe4103 Fe    0.25000   0.38539   0.68750   0.12311  Uiso   1.00
Fe4104 Fe    0.37500   0.26039   0.68750   0.12311  Uiso   1.00
H4105  H     0.58362   0.44282   0.74459   0.12311  Uiso   0.00
C4106  C     0.59798   0.46826   0.70948   0.12311  Uiso   1.00
C4107  C     0.59983   0.43329   0.53017   0.12311  Uiso   1.00
C4108  C     0.59102   0.44667   0.74471   0.12311  Uiso   1.00
C4109  C     0.57622   0.43896   0.74448   0.12311  Uiso   1.00
C4110  C     0.55418   0.46632   0.72131   0.12311  Uiso   1.00
C4111  C     0.56789   0.46779   0.71580   0.12311  Uiso   1.00
N4112  N     0.61109   0.46823   0.72318   0.12311  Uiso   1.00
N4113  N     0.61224   0.44662   0.51686   0.12311  Uiso   1.00
H4114  H     0.59432   0.48111   0.68042   0.12311  Uiso   1.00
H4115  H     0.59770   0.41743   0.55915   0.12311  Uiso   1.00
H4116  H     0.54849   0.48602   0.70171   0.12311  Uiso   1.00
H4117  H     0.57158   0.48848   0.69242   0.12311  Uiso   1.00
H4118  H     0.70862   0.31782   0.74459   0.12311  Uiso   0.00
C4119  C     0.72298   0.34326   0.70948   0.12311  Uiso   1.00
C4120  C     0.72483   0.30829   0.53017   0.12311  Uiso   1.00
C4121  C     0.71602   0.32167   0.74471   0.12311  Uiso   1.00
C4122  C     0.70122   0.31396   0.74448   0.12311  Uiso   1.00
C4123  C     0.67918   0.34132   0.72131   0.12311  Uiso   1.00
C4124  C     0.69289   0.34279   0.71580   0.12311  Uiso   1.00
N4125  N     0.73609   0.34323   0.72318   0.12311  Uiso   1.00
N4126  N     0.73724   0.32162   0.51686   0.12311  Uiso   1.00
H4127  H     0.71932   0.35611   0.68042   0.12311  Uiso   1.00
H4128  H     0.72270   0.29243   0.55915   0.12311  Uiso   1.00
H4129  H     0.67349   0.36102   0.70171   0.12311  Uiso   1.00
H4130  H     0.69658   0.36348   0.69242   0.12311  Uiso   1.00
H4131  H     0.66638   0.44282   0.63041   0.12311  Uiso   0.00
C4132  C     0.65202   0.46826   0.66552   0.12311  Uiso   1.00
C4133  C     0.65017   0.43329   0.59483   0.12311  Uiso   1.00
C4134  C     0.65898   0.44667   0.63029   0.12311  Uiso   1.00
C4135  C     0.67378   0.43896   0.63052   0.12311  Uiso   1.00
C4136  C     0.69582   0.46632   0.65369   0.12311  Uiso   1.00
C4137  C     0.68211   0.46779   0.65920   0.12311  Uiso   1.00
N4138  N     0.63891   0.46823   0.65182   0.12311  Uiso   1.00
N4139  N     0.63776   0.44662   0.60814   0.12311  Uiso   1.00
H4140  H     0.65568   0.48111   0.69458   0.12311  Uiso   1.00
H4141  H     0.65230   0.41743   0.56585   0.12311  Uiso   1.00
H4142  H     0.70151   0.48602   0.67329   0.12311  Uiso   1.00
H4143  H     0.67842   0.48848   0.68258   0.12311  Uiso   1.00
H4144  H     0.54138   0.31782   0.63041   0.12311  Uiso   0.00
C4145  C     0.52702   0.34326   0.66552   0.12311  Uiso   1.00
C4146  C     0.52517   0.30829   0.59483   0.12311  Uiso   1.00
C4147  C     0.53398   0.32167   0.63029   0.12311  Uiso   1.00
C4148  C     0.54878   0.31396   0.63052   0.12311  Uiso   1.00
C4149  C     0.57082   0.34132   0.65369   0.12311  Uiso   1.00
C4150  C     0.55711   0.34279   0.65920   0.12311  Uiso   1.00
N4151  N     0.51391   0.34323   0.65182   0.12311  Uiso   1.00
N4152  N     0.51276   0.32162   0.60814   0.12311  Uiso   1.00
H4153  H     0.53068   0.35611   0.69458   0.12311  Uiso   1.00
H4154  H     0.52730   0.29243   0.56585   0.12311  Uiso   1.00
H4155  H     0.57651   0.36102   0.67329   0.12311  Uiso   1.00
H4156  H     0.55342   0.36348   0.68258   0.12311  Uiso   1.00
H4157  H     0.66638   0.30718   0.50541   0.12311  Uiso   0.00
C4158  C     0.65202   0.28174   0.54052   0.12311  Uiso   1.00
C4159  C     0.65017   0.31671   0.71983   0.12311  Uiso   1.00
C4160  C     0.65898   0.30333   0.50529   0.12311  Uiso   1.00
C4161  C     0.67378   0.31104   0.50552   0.12311  Uiso   1.00
C4162  C     0.69582   0.28368   0.52869   0.12311  Uiso   1.00
C4163  C     0.68211   0.28221   0.53420   0.12311  Uiso   1.00
N4164  N     0.63891   0.28177   0.52682   0.12311  Uiso   1.00
N4165  N     0.63776   0.30338   0.73314   0.12311  Uiso   1.00
H4166  H     0.65568   0.26889   0.56958   0.12311  Uiso   1.00
H4167  H     0.65230   0.33257   0.69085   0.12311  Uiso   1.00
H4168  H     0.70151   0.26398   0.54829   0.12311  Uiso   1.00
H4169  H     0.67842   0.26152   0.55758   0.12311  Uiso   1.00
H4170  H     0.54138   0.43218   0.50541   0.12311  Uiso   0.00
C4171  C     0.52702   0.40674   0.54052   0.12311  Uiso   1.00
C4172  C     0.52517   0.44171   0.71983   0.12311  Uiso   1.00
C4173  C     0.53398   0.42833   0.50529   0.12311  Uiso   1.00
C4174  C     0.54878   0.43604   0.50552   0.12311  Uiso   1.00
C4175  C     0.57082   0.40868   0.52869   0.12311  Uiso   1.00
C4176  C     0.55711   0.40721   0.53420   0.12311  Uiso   1.00
N4177  N     0.51391   0.40677   0.52682   0.12311  Uiso   1.00
N4178  N     0.51276   0.42838   0.73314   0.12311  Uiso   1.00
H4179  H     0.53068   0.39389   0.56958   0.12311  Uiso   1.00
H4180  H     0.52730   0.45757   0.69085   0.12311  Uiso   1.00
H4181  H     0.57651   0.38898   0.54829   0.12311  Uiso   1.00
H4182  H     0.55342   0.38652   0.55758   0.12311  Uiso   1.00
H4183  H     0.58362   0.30718   0.61959   0.12311  Uiso   0.00
C4184  C     0.59798   0.28174   0.58448   0.12311  Uiso   1.00
C4185  C     0.59983   0.31671   0.65517   0.12311  Uiso   1.00
C4186  C     0.59102   0.30333   0.61971   0.12311  Uiso   1.00
C4187  C     0.57622   0.31104   0.61948   0.12311  Uiso   1.00
C4188  C     0.55418   0.28368   0.59631   0.12311  Uiso   1.00
C4189  C     0.56789   0.28221   0.59080   0.12311  Uiso   1.00
N4190  N     0.61109   0.28177   0.59818   0.12311  Uiso   1.00
N4191  N     0.61224   0.30338   0.64186   0.12311  Uiso   1.00
H4192  H     0.59432   0.26889   0.55542   0.12311  Uiso   1.00
H4193  H     0.59770   0.33257   0.68415   0.12311  Uiso   1.00
H4194  H     0.54849   0.26398   0.57671   0.12311  Uiso   1.00
H4195  H     0.57158   0.26152   0.56742   0.12311  Uiso   1.00
H4196  H     0.70862   0.43218   0.61959   0.12311  Uiso   0.00
C4197  C     0.72298   0.40674   0.58448   0.12311  Uiso   1.00
C4198  C     0.72483   0.44171   0.65517   0.12311  Uiso   1.00
C4199  C     0.71602   0.42833   0.61971   0.12311  Uiso   1.00
C4200  C     0.70122   0.43604   0.61948   0.12311  Uiso   1.00
C4201  C     0.67918   0.40868   0.59631   0.12311  Uiso   1.00
C4202  C     0.69289   0.40721   0.59080   0.12311  Uiso   1.00
N4203  N     0.73609   0.40677   0.59818   0.12311  Uiso   1.00
N4204  N     0.73724   0.42838   0.64186   0.12311  Uiso   1.00
H4205  H     0.71932   0.39389   0.55542   0.12311  Uiso   1.00
H4206  H     0.72270   0.45757   0.68415   0.12311  Uiso   1.00
H4207  H     0.67349   0.38898   0.57671   0.12311  Uiso   1.00
H4208  H     0.69658   0.38652   0.56742   0.12311  Uiso   1.00
Fe4209 Fe    0.50000   0.36461   0.56250   0.12311  Uiso   1.00
Fe4210 Fe    0.62500   0.48961   0.56250   0.12311  Uiso   1.00
Fe4211 Fe    0.50000   0.38539   0.68750   0.12311  Uiso   1.00
Fe4212 Fe    0.62500   0.26039   0.68750   0.12311  Uiso   1.00
H4213  H     0.83362   0.44282   0.74459   0.12311  Uiso   0.00
C4214  C     0.84798   0.46826   0.70948   0.12311  Uiso   1.00
C4215  C     0.84983   0.43329   0.53017   0.12311  Uiso   1.00
C4216  C     0.84102   0.44667   0.74471   0.12311  Uiso   1.00
C4217  C     0.82622   0.43896   0.74448   0.12311  Uiso   1.00
C4218  C     0.80418   0.46632   0.72131   0.12311  Uiso   1.00
C4219  C     0.81789   0.46779   0.71580   0.12311  Uiso   1.00
N4220  N     0.86109   0.46823   0.72318   0.12311  Uiso   1.00
N4221  N     0.86224   0.44662   0.51686   0.12311  Uiso   1.00
H4222  H     0.84432   0.48111   0.68042   0.12311  Uiso   1.00
H4223  H     0.84770   0.41743   0.55915   0.12311  Uiso   1.00
H4224  H     0.79849   0.48602   0.70171   0.12311  Uiso   1.00
H4225  H     0.82158   0.48848   0.69242   0.12311  Uiso   1.00
H4226  H     0.95862   0.31782   0.74459   0.12311  Uiso   0.00
C4227  C     0.97298   0.34326   0.70948   0.12311  Uiso   1.00
C4228  C     0.97483   0.30829   0.53017   0.12311  Uiso   1.00
C4229  C     0.96602   0.32167   0.74471   0.12311  Uiso   1.00
C4230  C     0.95122   0.31396   0.74448   0.12311  Uiso   1.00
C4231  C     0.92918   0.34132   0.72131   0.12311  Uiso   1.00
C4232  C     0.94289   0.34279   0.71580   0.12311  Uiso   1.00
N4233  N     0.98609   0.34323   0.72318   0.12311  Uiso   1.00
N4234  N     0.98724   0.32162   0.51686   0.12311  Uiso   1.00
H4235  H     0.96932   0.35611   0.68042   0.12311  Uiso   1.00
H4236  H     0.97270   0.29243   0.55915   0.12311  Uiso   1.00
H4237  H     0.92349   0.36102   0.70171   0.12311  Uiso   1.00
H4238  H     0.94658   0.36348   0.69242   0.12311  Uiso   1.00
H4239  H     0.91638   0.44282   0.63041   0.12311  Uiso   0.00
C4240  C     0.90202   0.46826   0.66552   0.12311  Uiso   1.00
C4241  C     0.90017   0.43329   0.59483   0.12311  Uiso   1.00
C4242  C     0.90898   0.44667   0.63029   0.12311  Uiso   1.00
C4243  C     0.92378   0.43896   0.63052   0.12311  Uiso   1.00
C4244  C     0.94582   0.46632   0.65369   0.12311  Uiso   1.00
C4245  C     0.93211   0.46779   0.65920   0.12311  Uiso   1.00
N4246  N     0.88891   0.46823   0.65182   0.12311  Uiso   1.00
N4247  N     0.88776   0.44662   0.60814   0.12311  Uiso   1.00
H4248  H     0.90568   0.48111   0.69458   0.12311  Uiso   1.00
H4249  H     0.90230   0.41743   0.56585   0.12311  Uiso   1.00
H4250  H     0.95151   0.48602   0.67329   0.12311  Uiso   1.00
H4251  H     0.92842   0.48848   0.68258   0.12311  Uiso   1.00
H4252  H     0.79138   0.31782   0.63041   0.12311  Uiso   0.00
C4253  C     0.77702   0.34326   0.66552   0.12311  Uiso   1.00
C4254  C     0.77517   0.30829   0.59483   0.12311  Uiso   1.00
C4255  C     0.78398   0.32167   0.63029   0.12311  Uiso   1.00
C4256  C     0.79878   0.31396   0.63052   0.12311  Uiso   1.00
C4257  C     0.82082   0.34132   0.65369   0.12311  Uiso   1.00
C4258  C     0.80711   0.34279   0.65920   0.12311  Uiso   1.00
N4259  N     0.76391   0.34323   0.65182   0.12311  Uiso   1.00
N4260  N     0.76276   0.32162   0.60814   0.12311  Uiso   1.00
H4261  H     0.78068   0.35611   0.69458   0.12311  Uiso   1.00
H4262  H     0.77730   0.29243   0.56585   0.12311  Uiso   1.00
H4263  H     0.82651   0.36102   0.67329   0.12311  Uiso   1.00
H4264  H     0.80342   0.36348   0.68258   0.12311  Uiso   1.00
H4265  H     0.91638   0.30718   0.50541   0.12311  Uiso   0.00
C4266  C     0.90202   0.28174   0.54052   0.12311  Uiso   1.00
C4267  C     0.90017   0.31671   0.71983   0.12311  Uiso   1.00
C4268  C     0.90898   0.30333   0.50529   0.12311  Uiso   1.00
C4269  C     0.92378   0.31104   0.50552   0.12311  Uiso   1.00
C4270  C     0.94582   0.28368   0.52869   0.12311  Uiso   1.00
C4271  C     0.93211   0.28221   0.53420   0.12311  Uiso   1.00
N4272  N     0.88891   0.28177   0.52682   0.12311  Uiso   1.00
N4273  N     0.88776   0.30338   0.73314   0.12311  Uiso   1.00
H4274  H     0.90568   0.26889   0.56958   0.12311  Uiso   1.00
H4275  H     0.90230   0.33257   0.69085   0.12311  Uiso   1.00
H4276  H     0.95151   0.26398   0.54829   0.12311  Uiso   1.00
H4277  H     0.92842   0.26152   0.55758   0.12311  Uiso   1.00
H4278  H     0.79138   0.43218   0.50541   0.12311  Uiso   0.00
C4279  C     0.77702   0.40674   0.54052   0.12311  Uiso   1.00
C4280  C     0.77517   0.44171   0.71983   0.12311  Uiso   1.00
C4281  C     0.78398   0.42833   0.50529   0.12311  Uiso   1.00
C4282  C     0.79878   0.43604   0.50552   0.12311  Uiso   1.00
C4283  C     0.82082   0.40868   0.52869   0.12311  Uiso   1.00
C4284  C     0.80711   0.40721   0.53420   0.12311  Uiso   1.00
N4285  N     0.76391   0.40677   0.52682   0.12311  Uiso   1.00
N4286  N     0.76276   0.42838   0.73314   0.12311  Uiso   1.00
H4287  H     0.78068   0.39389   0.56958   0.12311  Uiso   1.00
H4288  H     0.77730   0.45757   0.69085   0.12311  Uiso   1.00
H4289  H     0.82651   0.38898   0.54829   0.12311  Uiso   1.00
H4290  H     0.80342   0.38652   0.55758   0.12311  Uiso   1.00
H4291  H     0.83362   0.30718   0.61959   0.12311  Uiso   0.00
C4292  C     0.84798   0.28174   0.58448   0.12311  Uiso   1.00
C4293  C     0.84983   0.31671   0.65517   0.12311  Uiso   1.00
C4294  C     0.84102   0.30333   0.61971   0.12311  Uiso   1.00
C4295  C     0.82622   0.31104   0.61948   0.12311  Uiso   1.00
C4296  C     0.80418   0.28368   0.59631   0.12311  Uiso   1.00
C4297  C     0.81789   0.28221   0.59080   0.12311  Uiso   1.00
N4298  N     0.86109   0.28177   0.59818   0.12311  Uiso   1.00
N4299  N     0.86224   0.30338   0.64186   0.12311  Uiso   1.00
H4300  H     0.84432   0.26889   0.55542   0.12311  Uiso   1.00
H4301  H     0.84770   0.33257   0.68415   0.12311  Uiso   1.00
H4302  H     0.79849   0.26398   0.57671   0.12311  Uiso   1.00
H4303  H     0.82158   0.26152   0.56742   0.12311  Uiso   1.00
H4304  H     0.95862   0.43218   0.61959   0.12311  Uiso   0.00
C4305  C     0.97298   0.40674   0.58448   0.12311  Uiso   1.00
C4306  C     0.97483   0.44171   0.65517   0.12311  Uiso   1.00
C4307  C     0.96602   0.42833   0.61971   0.12311  Uiso   1.00
C4308  C     0.95122   0.43604   0.61948   0.12311  Uiso   1.00
C4309  C     0.92918   0.40868   0.59631   0.12311  Uiso   1.00
C4310  C     0.94289   0.40721   0.59080   0.12311  Uiso   1.00
N4311  N     0.98609   0.40677   0.59818   0.12311  Uiso   1.00
N4312  N     0.98724   0.42838   0.64186   0.12311  Uiso   1.00
H4313  H     0.96932   0.39389   0.55542   0.12311  Uiso   1.00
H4314  H     0.97270   0.45757   0.68415   0.12311  Uiso   1.00
H4315  H     0.92349   0.38898   0.57671   0.12311  Uiso   1.00
H4316  H     0.94658   0.38652   0.56742   0.12311  Uiso   1.00
Fe4317 Fe    0.75000   0.36461   0.56250   0.12311  Uiso   1.00
Fe4318 Fe    0.87500   0.48961   0.56250   0.12311  Uiso   1.00
Fe4319 Fe    0.75000   0.38539   0.68750   0.12311  Uiso   1.00
Fe4320 Fe    0.87500   0.26039   0.68750   0.12311  Uiso   1.00
H4321  H     0.08362   0.69282   0.74459   0.12311  Uiso   0.00
C4322  C     0.09798   0.71826   0.70948   0.12311  Uiso   1.00
C4323  C     0.09983   0.68329   0.53017   0.12311  Uiso   1.00
C4324  C     0.09102   0.69667   0.74471   0.12311  Uiso   1.00
C4325  C     0.07622   0.68896   0.74448   0.12311  Uiso   1.00
C4326  C     0.05418   0.71632   0.72131   0.12311  Uiso   1.00
C4327  C     0.06789   0.71779   0.71580   0.12311  Uiso   1.00
N4328  N     0.11109   0.71823   0.72318   0.12311  Uiso   1.00
N4329  N     0.11224   0.69662   0.51686   0.12311  Uiso   1.00
H4330  H     0.09432   0.73111   0.68042   0.12311  Uiso   1.00
H4331  H     0.09770   0.66743   0.55915   0.12311  Uiso   1.00
H4332  H     0.04849   0.73602   0.70171   0.12311  Uiso   1.00
H4333  H     0.07158   0.73848   0.69242   0.12311  Uiso   1.00
H4334  H     0.20862   0.56782   0.74459   0.12311  Uiso   0.00
C4335  C     0.22298   0.59326   0.70948   0.12311  Uiso   1.00
C4336  C     0.22483   0.55829   0.53017   0.12311  Uiso   1.00
C4337  C     0.21602   0.57167   0.74471   0.12311  Uiso   1.00
C4338  C     0.20122   0.56396   0.74448   0.12311  Uiso   1.00
C4339  C     0.17918   0.59132   0.72131   0.12311  Uiso   1.00
C4340  C     0.19289   0.59279   0.71580   0.12311  Uiso   1.00
N4341  N     0.23609   0.59323   0.72318   0.12311  Uiso   1.00
N4342  N     0.23724   0.57162   0.51686   0.12311  Uiso   1.00
H4343  H     0.21932   0.60611   0.68042   0.12311  Uiso   1.00
H4344  H     0.22270   0.54243   0.55915   0.12311  Uiso   1.00
H4345  H     0.17349   0.61102   0.70171   0.12311  Uiso   1.00
H4346  H     0.19658   0.61348   0.69242   0.12311  Uiso   1.00
H4347  H     0.16638   0.69282   0.63041   0.12311  Uiso   0.00
C4348  C     0.15202   0.71826   0.66552   0.12311  Uiso   1.00
C4349  C     0.15017   0.68329   0.59483   0.12311  Uiso   1.00
C4350  C     0.15898   0.69667   0.63029   0.12311  Uiso   1.00
C4351  C     0.17378   0.68896   0.63052   0.12311  Uiso   1.00
C4352  C     0.19582   0.71632   0.65369   0.12311  Uiso   1.00
C4353  C     0.18211   0.71779   0.65920   0.12311  Uiso   1.00
N4354  N     0.13891   0.71823   0.65182   0.12311  Uiso   1.00
N4355  N     0.13776   0.69662   0.60814   0.12311  Uiso   1.00
H4356  H     0.15568   0.73111   0.69458   0.12311  Uiso   1.00
H4357  H     0.15230   0.66743   0.56585   0.12311  Uiso   1.00
H4358  H     0.20151   0.73602   0.67329   0.12311  Uiso   1.00
H4359  H     0.17842   0.73848   0.68258   0.12311  Uiso   1.00
H4360  H     0.04138   0.56782   0.63041   0.12311  Uiso   0.00
C4361  C     0.02702   0.59326   0.66552   0.12311  Uiso   1.00
C4362  C     0.02517   0.55829   0.59483   0.12311  Uiso   1.00
C4363  C     0.03398   0.57167   0.63029   0.12311  Uiso   1.00
C4364  C     0.04878   0.56396   0.63052   0.12311  Uiso   1.00
C4365  C     0.07082   0.59132   0.65369   0.12311  Uiso   1.00
C4366  C     0.05711   0.59279   0.65920   0.12311  Uiso   1.00
N4367  N     0.01391   0.59323   0.65182   0.12311  Uiso   1.00
N4368  N     0.01276   0.57162   0.60814   0.12311  Uiso   1.00
H4369  H     0.03068   0.60611   0.69458   0.12311  Uiso   1.00
H4370  H     0.02730   0.54243   0.56585   0.12311  Uiso   1.00
H4371  H     0.07651   0.61102   0.67329   0.12311  Uiso   1.00
H4372  H     0.05342   0.61348   0.68258   0.12311  Uiso   1.00
H4373  H     0.16638   0.55718   0.50541   0.12311  Uiso   0.00
C4374  C     0.15202   0.53174   0.54052   0.12311  Uiso   1.00
C4375  C     0.15017   0.56671   0.71983   0.12311  Uiso   1.00
C4376  C     0.15898   0.55333   0.50529   0.12311  Uiso   1.00
C4377  C     0.17378   0.56104   0.50552   0.12311  Uiso   1.00
C4378  C     0.19582   0.53368   0.52869   0.12311  Uiso   1.00
C4379  C     0.18211   0.53221   0.53420   0.12311  Uiso   1.00
N4380  N     0.13891   0.53177   0.52682   0.12311  Uiso   1.00
N4381  N     0.13776   0.55338   0.73314   0.12311  Uiso   1.00
H4382  H     0.15568   0.51889   0.56958   0.12311  Uiso   1.00
H4383  H     0.15230   0.58257   0.69085   0.12311  Uiso   1.00
H4384  H     0.20151   0.51398   0.54829   0.12311  Uiso   1.00
H4385  H     0.17842   0.51152   0.55758   0.12311  Uiso   1.00
H4386  H     0.04138   0.68218   0.50541   0.12311  Uiso   0.00
C4387  C     0.02702   0.65674   0.54052   0.12311  Uiso   1.00
C4388  C     0.02517   0.69171   0.71983   0.12311  Uiso   1.00
C4389  C     0.03398   0.67833   0.50529   0.12311  Uiso   1.00
C4390  C     0.04878   0.68604   0.50552   0.12311  Uiso   1.00
C4391  C     0.07082   0.65868   0.52869   0.12311  Uiso   1.00
C4392  C     0.05711   0.65721   0.53420   0.12311  Uiso   1.00
N4393  N     0.01391   0.65677   0.52682   0.12311  Uiso   1.00
N4394  N     0.01276   0.67838   0.73314   0.12311  Uiso   1.00
H4395  H     0.03068   0.64389   0.56958   0.12311  Uiso   1.00
H4396  H     0.02730   0.70757   0.69085   0.12311  Uiso   1.00
H4397  H     0.07651   0.63898   0.54829   0.12311  Uiso   1.00
H4398  H     0.05342   0.63652   0.55758   0.12311  Uiso   1.00
H4399  H     0.08362   0.55718   0.61959   0.12311  Uiso   0.00
C4400  C     0.09798   0.53174   0.58448   0.12311  Uiso   1.00
C4401  C     0.09983   0.56671   0.65517   0.12311  Uiso   1.00
C4402  C     0.09102   0.55333   0.61971   0.12311  Uiso   1.00
C4403  C     0.07622   0.56104   0.61948   0.12311  Uiso   1.00
C4404  C     0.05418   0.53368   0.59631   0.12311  Uiso   1.00
C4405  C     0.06789   0.53221   0.59080   0.12311  Uiso   1.00
N4406  N     0.11109   0.53177   0.59818   0.12311  Uiso   1.00
N4407  N     0.11224   0.55338   0.64186   0.12311  Uiso   1.00
H4408  H     0.09432   0.51889   0.55542   0.12311  Uiso   1.00
H4409  H     0.09770   0.58257   0.68415   0.12311  Uiso   1.00
H4410  H     0.04849   0.51398   0.57671   0.12311  Uiso   1.00
H4411  H     0.07158   0.51152   0.56742   0.12311  Uiso   1.00
H4412  H     0.20862   0.68218   0.61959   0.12311  Uiso   0.00
C4413  C     0.22298   0.65674   0.58448   0.12311  Uiso   1.00
C4414  C     0.22483   0.69171   0.65517   0.12311  Uiso   1.00
C4415  C     0.21602   0.67833   0.61971   0.12311  Uiso   1.00
C4416  C     0.20122   0.68604   0.61948   0.12311  Uiso   1.00
C4417  C     0.17918   0.65868   0.59631   0.12311  Uiso   1.00
C4418  C     0.19289   0.65721   0.59080   0.12311  Uiso   1.00
N4419  N     0.23609   0.65677   0.59818   0.12311  Uiso   1.00
N4420  N     0.23724   0.67838   0.64186   0.12311  Uiso   1.00
H4421  H     0.21932   0.64389   0.55542   0.12311  Uiso   1.00
H4422  H     0.22270   0.70757   0.68415   0.12311  Uiso   1.00
H4423  H     0.17349   0.63898   0.57671   0.12311  Uiso   1.00
H4424  H     0.19658   0.63652   0.56742   0.12311  Uiso   1.00
Fe4425 Fe    0.00000   0.61461   0.56250   0.12311  Uiso   1.00
Fe4426 Fe    0.12500   0.73961   0.56250   0.12311  Uiso   1.00
Fe4427 Fe    0.00000   0.63539   0.68750   0.12311  Uiso   1.00
Fe4428 Fe    0.12500   0.51039   0.68750   0.12311  Uiso   1.00
H4429  H     0.33362   0.69282   0.74459   0.12311  Uiso   0.00
C4430  C     0.34798   0.71826   0.70948   0.12311  Uiso   1.00
C4431  C     0.34983   0.68329   0.53017   0.12311  Uiso   1.00
C4432  C     0.34102   0.69667   0.74471   0.12311  Uiso   1.00
C4433  C     0.32622   0.68896   0.74448   0.12311  Uiso   1.00
C4434  C     0.30418   0.71632   0.72131   0.12311  Uiso   1.00
C4435  C     0.31789   0.71779   0.71580   0.12311  Uiso   1.00
N4436  N     0.36109   0.71823   0.72318   0.12311  Uiso   1.00
N4437  N     0.36224   0.69662   0.51686   0.12311  Uiso   1.00
H4438  H     0.34432   0.73111   0.68042   0.12311  Uiso   1.00
H4439  H     0.34770   0.66743   0.55915   0.12311  Uiso   1.00
H4440  H     0.29849   0.73602   0.70171   0.12311  Uiso   1.00
H4441  H     0.32158   0.73848   0.69242   0.12311  Uiso   1.00
H4442  H     0.45862   0.56782   0.74459   0.12311  Uiso   0.00
C4443  C     0.47298   0.59326   0.70948   0.12311  Uiso   1.00
C4444  C     0.47483   0.55829   0.53017   0.12311  Uiso   1.00
C4445  C     0.46602   0.57167   0.74471   0.12311  Uiso   1.00
C4446  C     0.45122   0.56396   0.74448   0.12311  Uiso   1.00
C4447  C     0.42918   0.59132   0.72131   0.12311  Uiso   1.00
C4448  C     0.44289   0.59279   0.71580   0.12311  Uiso   1.00
N4449  N     0.48609   0.59323   0.72318   0.12311  Uiso   1.00
N4450  N     0.48724   0.57162   0.51686   0.12311  Uiso   1.00
H4451  H     0.46932   0.60611   0.68042   0.12311  Uiso   1.00
H4452  H     0.47270   0.54243   0.55915   0.12311  Uiso   1.00
H4453  H     0.42349   0.61102   0.70171   0.12311  Uiso   1.00
H4454  H     0.44658   0.61348   0.69242   0.12311  Uiso   1.00
H4455  H     0.41638   0.69282   0.63041   0.12311  Uiso   0.00
C4456  C     0.40202   0.71826   0.66552   0.12311  Uiso   1.00
C4457  C     0.40017   0.68329   0.59483   0.12311  Uiso   1.00
C4458  C     0.40898   0.69667   0.63029   0.12311  Uiso   1.00
C4459  C     0.42378   0.68896   0.63052   0.12311  Uiso   1.00
C4460  C     0.44582   0.71632   0.65369   0.12311  Uiso   1.00
C4461  C     0.43211   0.71779   0.65920   0.12311  Uiso   1.00
N4462  N     0.38891   0.71823   0.65182   0.12311  Uiso   1.00
N4463  N     0.38776   0.69662   0.60814   0.12311  Uiso   1.00
H4464  H     0.40568   0.73111   0.69458   0.12311  Uiso   1.00
H4465  H     0.40230   0.66743   0.56585   0.12311  Uiso   1.00
H4466  H     0.45151   0.73602   0.67329   0.12311  Uiso   1.00
H4467  H     0.42842   0.73848   0.68258   0.12311  Uiso   1.00
H4468  H     0.29138   0.56782   0.63041   0.12311  Uiso   0.00
C4469  C     0.27702   0.59326   0.66552   0.12311  Uiso   1.00
C4470  C     0.27517   0.55829   0.59483   0.12311  Uiso   1.00
C4471  C     0.28398   0.57167   0.63029   0.12311  Uiso   1.00
C4472  C     0.29878   0.56396   0.63052   0.12311  Uiso   1.00
C4473  C     0.32082   0.59132   0.65369   0.12311  Uiso   1.00
C4474  C     0.30711   0.59279   0.65920   0.12311  Uiso   1.00
N4475  N     0.26391   0.59323   0.65182   0.12311  Uiso   1.00
N4476  N     0.26276   0.57162   0.60814   0.12311  Uiso   1.00
H4477  H     0.28068   0.60611   0.69458   0.12311  Uiso   1.00
H4478  H     0.27730   0.54243   0.56585   0.12311  Uiso   1.00
H4479  H     0.32651   0.61102   0.67329   0.12311  Uiso   1.00
H4480  H     0.30342   0.61348   0.68258   0.12311  Uiso   1.00
H4481  H     0.41638   0.55718   0.50541   0.12311  Uiso   0.00
C4482  C     0.40202   0.53174   0.54052   0.12311  Uiso   1.00
C4483  C     0.40017   0.56671   0.71983   0.12311  Uiso   1.00
C4484  C     0.40898   0.55333   0.50529   0.12311  Uiso   1.00
C4485  C     0.42378   0.56104   0.50552   0.12311  Uiso   1.00
C4486  C     0.44582   0.53368   0.52869   0.12311  Uiso   1.00
C4487  C     0.43211   0.53221   0.53420   0.12311  Uiso   1.00
N4488  N     0.38891   0.53177   0.52682   0.12311  Uiso   1.00
N4489  N     0.38776   0.55338   0.73314   0.12311  Uiso   1.00
H4490  H     0.40568   0.51889   0.56958   0.12311  Uiso   1.00
H4491  H     0.40230   0.58257   0.69085   0.12311  Uiso   1.00
H4492  H     0.45151   0.51398   0.54829   0.12311  Uiso   1.00
H4493  H     0.42842   0.51152   0.55758   0.12311  Uiso   1.00
H4494  H     0.29138   0.68218   0.50541   0.12311  Uiso   0.00
C4495  C     0.27702   0.65674   0.54052   0.12311  Uiso   1.00
C4496  C     0.27517   0.69171   0.71983   0.12311  Uiso   1.00
C4497  C     0.28398   0.67833   0.50529   0.12311  Uiso   1.00
C4498  C     0.29878   0.68604   0.50552   0.12311  Uiso   1.00
C4499  C     0.32082   0.65868   0.52869   0.12311  Uiso   1.00
C4500  C     0.30711   0.65721   0.53420   0.12311  Uiso   1.00
N4501  N     0.26391   0.65677   0.52682   0.12311  Uiso   1.00
N4502  N     0.26276   0.67838   0.73314   0.12311  Uiso   1.00
H4503  H     0.28068   0.64389   0.56958   0.12311  Uiso   1.00
H4504  H     0.27730   0.70757   0.69085   0.12311  Uiso   1.00
H4505  H     0.32651   0.63898   0.54829   0.12311  Uiso   1.00
H4506  H     0.30342   0.63652   0.55758   0.12311  Uiso   1.00
H4507  H     0.33362   0.55718   0.61959   0.12311  Uiso   0.00
C4508  C     0.34798   0.53174   0.58448   0.12311  Uiso   1.00
C4509  C     0.34983   0.56671   0.65517   0.12311  Uiso   1.00
C4510  C     0.34102   0.55333   0.61971   0.12311  Uiso   1.00
C4511  C     0.32622   0.56104   0.61948   0.12311  Uiso   1.00
C4512  C     0.30418   0.53368   0.59631   0.12311  Uiso   1.00
C4513  C     0.31789   0.53221   0.59080   0.12311  Uiso   1.00
N4514  N     0.36109   0.53177   0.59818   0.12311  Uiso   1.00
N4515  N     0.36224   0.55338   0.64186   0.12311  Uiso   1.00
H4516  H     0.34432   0.51889   0.55542   0.12311  Uiso   1.00
H4517  H     0.34770   0.58257   0.68415   0.12311  Uiso   1.00
H4518  H     0.29849   0.51398   0.57671   0.12311  Uiso   1.00
H4519  H     0.32158   0.51152   0.56742   0.12311  Uiso   1.00
H4520  H     0.45862   0.68218   0.61959   0.12311  Uiso   0.00
C4521  C     0.47298   0.65674   0.58448   0.12311  Uiso   1.00
C4522  C     0.47483   0.69171   0.65517   0.12311  Uiso   1.00
C4523  C     0.46602   0.67833   0.61971   0.12311  Uiso   1.00
C4524  C     0.45122   0.68604   0.61948   0.12311  Uiso   1.00
C4525  C     0.42918   0.65868   0.59631   0.12311  Uiso   1.00
C4526  C     0.44289   0.65721   0.59080   0.12311  Uiso   1.00
N4527  N     0.48609   0.65677   0.59818   0.12311  Uiso   1.00
N4528  N     0.48724   0.67838   0.64186   0.12311  Uiso   1.00
H4529  H     0.46932   0.64389   0.55542   0.12311  Uiso   1.00
H4530  H     0.47270   0.70757   0.68415   0.12311  Uiso   1.00
H4531  H     0.42349   0.63898   0.57671   0.12311  Uiso   1.00
H4532  H     0.44658   0.63652   0.56742   0.12311  Uiso   1.00
Fe4533 Fe    0.25000   0.61461   0.56250   0.12311  Uiso   1.00
Fe4534 Fe    0.37500   0.73961   0.56250   0.12311  Uiso   1.00
Fe4535 Fe    0.25000   0.63539   0.68750   0.12311  Uiso   1.00
Fe4536 Fe    0.37500   0.51039   0.68750   0.12311  Uiso   1.00
H4537  H     0.58362   0.69282   0.74459   0.12311  Uiso   0.00
C4538  C     0.59798   0.71826   0.70948   0.12311  Uiso   1.00
C4539  C     0.59983   0.68329   0.53017   0.12311  Uiso   1.00
C4540  C     0.59102   0.69667   0.74471   0.12311  Uiso   1.00
C4541  C     0.57622   0.68896   0.74448   0.12311  Uiso   1.00
C4542  C     0.55418   0.71632   0.72131   0.12311  Uiso   1.00
C4543  C     0.56789   0.71779   0.71580   0.12311  Uiso   1.00
N4544  N     0.61109   0.71823   0.72318   0.12311  Uiso   1.00
N4545  N     0.61224   0.69662   0.51686   0.12311  Uiso   1.00
H4546  H     0.59432   0.73111   0.68042   0.12311  Uiso   1.00
H4547  H     0.59770   0.66743   0.55915   0.12311  Uiso   1.00
H4548  H     0.54849   0.73602   0.70171   0.12311  Uiso   1.00
H4549  H     0.57158   0.73848   0.69242   0.12311  Uiso   1.00
H4550  H     0.70862   0.56782   0.74459   0.12311  Uiso   0.00
C4551  C     0.72298   0.59326   0.70948   0.12311  Uiso   1.00
C4552  C     0.72483   0.55829   0.53017   0.12311  Uiso   1.00
C4553  C     0.71602   0.57167   0.74471   0.12311  Uiso   1.00
C4554  C     0.70122   0.56396   0.74448   0.12311  Uiso   1.00
C4555  C     0.67918   0.59132   0.72131   0.12311  Uiso   1.00
C4556  C     0.69289   0.59279   0.71580   0.12311  Uiso   1.00
N4557  N     0.73609   0.59323   0.72318   0.12311  Uiso   1.00
N4558  N     0.73724   0.57162   0.51686   0.12311  Uiso   1.00
H4559  H     0.71932   0.60611   0.68042   0.12311  Uiso   1.00
H4560  H     0.72270   0.54243   0.55915   0.12311  Uiso   1.00
H4561  H     0.67349   0.61102   0.70171   0.12311  Uiso   1.00
H4562  H     0.69658   0.61348   0.69242   0.12311  Uiso   1.00
H4563  H     0.66638   0.69282   0.63041   0.12311  Uiso   0.00
C4564  C     0.65202   0.71826   0.66552   0.12311  Uiso   1.00
C4565  C     0.65017   0.68329   0.59483   0.12311  Uiso   1.00
C4566  C     0.65898   0.69667   0.63029   0.12311  Uiso   1.00
C4567  C     0.67378   0.68896   0.63052   0.12311  Uiso   1.00
C4568  C     0.69582   0.71632   0.65369   0.12311  Uiso   1.00
C4569  C     0.68211   0.71779   0.65920   0.12311  Uiso   1.00
N4570  N     0.63891   0.71823   0.65182   0.12311  Uiso   1.00
N4571  N     0.63776   0.69662   0.60814   0.12311  Uiso   1.00
H4572  H     0.65568   0.73111   0.69458   0.12311  Uiso   1.00
H4573  H     0.65230   0.66743   0.56585   0.12311  Uiso   1.00
H4574  H     0.70151   0.73602   0.67329   0.12311  Uiso   1.00
H4575  H     0.67842   0.73848   0.68258   0.12311  Uiso   1.00
H4576  H     0.54138   0.56782   0.63041   0.12311  Uiso   0.00
C4577  C     0.52702   0.59326   0.66552   0.12311  Uiso   1.00
C4578  C     0.52517   0.55829   0.59483   0.12311  Uiso   1.00
C4579  C     0.53398   0.57167   0.63029   0.12311  Uiso   1.00
C4580  C     0.54878   0.56396   0.63052   0.12311  Uiso   1.00
C4581  C     0.57082   0.59132   0.65369   0.12311  Uiso   1.00
C4582  C     0.55711   0.59279   0.65920   0.12311  Uiso   1.00
N4583  N     0.51391   0.59323   0.65182   0.12311  Uiso   1.00
N4584  N     0.51276   0.57162   0.60814   0.12311  Uiso   1.00
H4585  H     0.53068   0.60611   0.69458   0.12311  Uiso   1.00
H4586  H     0.52730   0.54243   0.56585   0.12311  Uiso   1.00
H4587  H     0.57651   0.61102   0.67329   0.12311  Uiso   1.00
H4588  H     0.55342   0.61348   0.68258   0.12311  Uiso   1.00
H4589  H     0.66638   0.55718   0.50541   0.12311  Uiso   0.00
C4590  C     0.65202   0.53174   0.54052   0.12311  Uiso   1.00
C4591  C     0.65017   0.56671   0.71983   0.12311  Uiso   1.00
C4592  C     0.65898   0.55333   0.50529   0.12311  Uiso   1.00
C4593  C     0.67378   0.56104   0.50552   0.12311  Uiso   1.00
C4594  C     0.69582   0.53368   0.52869   0.12311  Uiso   1.00
C4595  C     0.68211   0.53221   0.53420   0.12311  Uiso   1.00
N4596  N     0.63891   0.53177   0.52682   0.12311  Uiso   1.00
N4597  N     0.63776   0.55338   0.73314   0.12311  Uiso   1.00
H4598  H     0.65568   0.51889   0.56958   0.12311  Uiso   1.00
H4599  H     0.65230   0.58257   0.69085   0.12311  Uiso   1.00
H4600  H     0.70151   0.51398   0.54829   0.12311  Uiso   1.00
H4601  H     0.67842   0.51152   0.55758   0.12311  Uiso   1.00
H4602  H     0.54138   0.68218   0.50541   0.12311  Uiso   0.00
C4603  C     0.52702   0.65674   0.54052   0.12311  Uiso   1.00
C4604  C     0.52517   0.69171   0.71983   0.12311  Uiso   1.00
C4605  C     0.53398   0.67833   0.50529   0.12311  Uiso   1.00
C4606  C     0.54878   0.68604   0.50552   0.12311  Uiso   1.00
C4607  C     0.57082   0.65868   0.52869   0.12311  Uiso   1.00
C4608  C     0.55711   0.65721   0.53420   0.12311  Uiso   1.00
N4609  N     0.51391   0.65677   0.52682   0.12311  Uiso   1.00
N4610  N     0.51276   0.67838   0.73314   0.12311  Uiso   1.00
H4611  H     0.53068   0.64389   0.56958   0.12311  Uiso   1.00
H4612  H     0.52730   0.70757   0.69085   0.12311  Uiso   1.00
H4613  H     0.57651   0.63898   0.54829   0.12311  Uiso   1.00
H4614  H     0.55342   0.63652   0.55758   0.12311  Uiso   1.00
H4615  H     0.58362   0.55718   0.61959   0.12311  Uiso   0.00
C4616  C     0.59798   0.53174   0.58448   0.12311  Uiso   1.00
C4617  C     0.59983   0.56671   0.65517   0.12311  Uiso   1.00
C4618  C     0.59102   0.55333   0.61971   0.12311  Uiso   1.00
C4619  C     0.57622   0.56104   0.61948   0.12311  Uiso   1.00
C4620  C     0.55418   0.53368   0.59631   0.12311  Uiso   1.00
C4621  C     0.56789   0.53221   0.59080   0.12311  Uiso   1.00
N4622  N     0.61109   0.53177   0.59818   0.12311  Uiso   1.00
N4623  N     0.61224   0.55338   0.64186   0.12311  Uiso   1.00
H4624  H     0.59432   0.51889   0.55542   0.12311  Uiso   1.00
H4625  H     0.59770   0.58257   0.68415   0.12311  Uiso   1.00
H4626  H     0.54849   0.51398   0.57671   0.12311  Uiso   1.00
H4627  H     0.57158   0.51152   0.56742   0.12311  Uiso   1.00
H4628  H     0.70862   0.68218   0.61959   0.12311  Uiso   0.00
C4629  C     0.72298   0.65674   0.58448   0.12311  Uiso   1.00
C4630  C     0.72483   0.69171   0.65517   0.12311  Uiso   1.00
C4631  C     0.71602   0.67833   0.61971   0.12311  Uiso   1.00
C4632  C     0.70122   0.68604   0.61948   0.12311  Uiso   1.00
C4633  C     0.67918   0.65868   0.59631   0.12311  Uiso   1.00
C4634  C     0.69289   0.65721   0.59080   0.12311  Uiso   1.00
N4635  N     0.73609   0.65677   0.59818   0.12311  Uiso   1.00
N4636  N     0.73724   0.67838   0.64186   0.12311  Uiso   1.00
H4637  H     0.71932   0.64389   0.55542   0.12311  Uiso   1.00
H4638  H     0.72270   0.70757   0.68415   0.12311  Uiso   1.00
H4639  H     0.67349   0.63898   0.57671   0.12311  Uiso   1.00
H4640  H     0.69658   0.63652   0.56742   0.12311  Uiso   1.00
Fe4641 Fe    0.50000   0.61461   0.56250   0.12311  Uiso   1.00
Fe4642 Fe    0.62500   0.73961   0.56250   0.12311  Uiso   1.00
Fe4643 Fe    0.50000   0.63539   0.68750   0.12311  Uiso   1.00
Fe4644 Fe    0.62500   0.51039   0.68750   0.12311  Uiso   1.00
H4645  H     0.83362   0.69282   0.74459   0.12311  Uiso   0.00
C4646  C     0.84798   0.71826   0.70948   0.12311  Uiso   1.00
C4647  C     0.84983   0.68329   0.53017   0.12311  Uiso   1.00
C4648  C     0.84102   0.69667   0.74471   0.12311  Uiso   1.00
C4649  C     0.82622   0.68896   0.74448   0.12311  Uiso   1.00
C4650  C     0.80418   0.71632   0.72131   0.12311  Uiso   1.00
C4651  C     0.81789   0.71779   0.71580   0.12311  Uiso   1.00
N4652  N     0.86109   0.71823   0.72318   0.12311  Uiso   1.00
N4653  N     0.86224   0.69662   0.51686   0.12311  Uiso   1.00
H4654  H     0.84432   0.73111   0.68042   0.12311  Uiso   1.00
H4655  H     0.84770   0.66743   0.55915   0.12311  Uiso   1.00
H4656  H     0.79849   0.73602   0.70171   0.12311  Uiso   1.00
H4657  H     0.82158   0.73848   0.69242   0.12311  Uiso   1.00
H4658  H     0.95862   0.56782   0.74459   0.12311  Uiso   0.00
C4659  C     0.97298   0.59326   0.70948   0.12311  Uiso   1.00
C4660  C     0.97483   0.55829   0.53017   0.12311  Uiso   1.00
C4661  C     0.96602   0.57167   0.74471   0.12311  Uiso   1.00
C4662  C     0.95122   0.56396   0.74448   0.12311  Uiso   1.00
C4663  C     0.92918   0.59132   0.72131   0.12311  Uiso   1.00
C4664  C     0.94289   0.59279   0.71580   0.12311  Uiso   1.00
N4665  N     0.98609   0.59323   0.72318   0.12311  Uiso   1.00
N4666  N     0.98724   0.57162   0.51686   0.12311  Uiso   1.00
H4667  H     0.96932   0.60611   0.68042   0.12311  Uiso   1.00
H4668  H     0.97270   0.54243   0.55915   0.12311  Uiso   1.00
H4669  H     0.92349   0.61102   0.70171   0.12311  Uiso   1.00
H4670  H     0.94658   0.61348   0.69242   0.12311  Uiso   1.00
H4671  H     0.91638   0.69282   0.63041   0.12311  Uiso   0.00
C4672  C     0.90202   0.71826   0.66552   0.12311  Uiso   1.00
C4673  C     0.90017   0.68329   0.59483   0.12311  Uiso   1.00
C4674  C     0.90898   0.69667   0.63029   0.12311  Uiso   1.00
C4675  C     0.92378   0.68896   0.63052   0.12311  Uiso   1.00
C4676  C     0.94582   0.71632   0.65369   0.12311  Uiso   1.00
C4677  C     0.93211   0.71779   0.65920   0.12311  Uiso   1.00
N4678  N     0.88891   0.71823   0.65182   0.12311  Uiso   1.00
N4679  N     0.88776   0.69662   0.60814   0.12311  Uiso   1.00
H4680  H     0.90568   0.73111   0.69458   0.12311  Uiso   1.00
H4681  H     0.90230   0.66743   0.56585   0.12311  Uiso   1.00
H4682  H     0.95151   0.73602   0.67329   0.12311  Uiso   1.00
H4683  H     0.92842   0.73848   0.68258   0.12311  Uiso   1.00
H4684  H     0.79138   0.56782   0.63041   0.12311  Uiso   0.00
C4685  C     0.77702   0.59326   0.66552   0.12311  Uiso   1.00
C4686  C     0.77517   0.55829   0.59483   0.12311  Uiso   1.00
C4687  C     0.78398   0.57167   0.63029   0.12311  Uiso   1.00
C4688  C     0.79878   0.56396   0.63052   0.12311  Uiso   1.00
C4689  C     0.82082   0.59132   0.65369   0.12311  Uiso   1.00
C4690  C     0.80711   0.59279   0.65920   0.12311  Uiso   1.00
N4691  N     0.76391   0.59323   0.65182   0.12311  Uiso   1.00
N4692  N     0.76276   0.57162   0.60814   0.12311  Uiso   1.00
H4693  H     0.78068   0.60611   0.69458   0.12311  Uiso   1.00
H4694  H     0.77730   0.54243   0.56585   0.12311  Uiso   1.00
H4695  H     0.82651   0.61102   0.67329   0.12311  Uiso   1.00
H4696  H     0.80342   0.61348   0.68258   0.12311  Uiso   1.00
H4697  H     0.91638   0.55718   0.50541   0.12311  Uiso   0.00
C4698  C     0.90202   0.53174   0.54052   0.12311  Uiso   1.00
C4699  C     0.90017   0.56671   0.71983   0.12311  Uiso   1.00
C4700  C     0.90898   0.55333   0.50529   0.12311  Uiso   1.00
C4701  C     0.92378   0.56104   0.50552   0.12311  Uiso   1.00
C4702  C     0.94582   0.53368   0.52869   0.12311  Uiso   1.00
C4703  C     0.93211   0.53221   0.53420   0.12311  Uiso   1.00
N4704  N     0.88891   0.53177   0.52682   0.12311  Uiso   1.00
N4705  N     0.88776   0.55338   0.73314   0.12311  Uiso   1.00
H4706  H     0.90568   0.51889   0.56958   0.12311  Uiso   1.00
H4707  H     0.90230   0.58257   0.69085   0.12311  Uiso   1.00
H4708  H     0.95151   0.51398   0.54829   0.12311  Uiso   1.00
H4709  H     0.92842   0.51152   0.55758   0.12311  Uiso   1.00
H4710  H     0.79138   0.68218   0.50541   0.12311  Uiso   0.00
C4711  C     0.77702   0.65674   0.54052   0.12311  Uiso   1.00
C4712  C     0.77517   0.69171   0.71983   0.12311  Uiso   1.00
C4713  C     0.78398   0.67833   0.50529   0.12311  Uiso   1.00
C4714  C     0.79878   0.68604   0.50552   0.12311  Uiso   1.00
C4715  C     0.82082   0.65868   0.52869   0.12311  Uiso   1.00
C4716  C     0.80711   0.65721   0.53420   0.12311  Uiso   1.00
N4717  N     0.76391   0.65677   0.52682   0.12311  Uiso   1.00
N4718  N     0.76276   0.67838   0.73314   0.12311  Uiso   1.00
H4719  H     0.78068   0.64389   0.56958   0.12311  Uiso   1.00
H4720  H     0.77730   0.70757   0.69085   0.12311  Uiso   1.00
H4721  H     0.82651   0.63898   0.54829   0.12311  Uiso   1.00
H4722  H     0.80342   0.63652   0.55758   0.12311  Uiso   1.00
H4723  H     0.83362   0.55718   0.61959   0.12311  Uiso   0.00
C4724  C     0.84798   0.53174   0.58448   0.12311  Uiso   1.00
C4725  C     0.84983   0.56671   0.65517   0.12311  Uiso   1.00
C4726  C     0.84102   0.55333   0.61971   0.12311  Uiso   1.00
C4727  C     0.82622   0.56104   0.61948   0.12311  Uiso   1.00
C4728  C     0.80418   0.53368   0.59631   0.12311  Uiso   1.00
C4729  C     0.81789   0.53221   0.59080   0.12311  Uiso   1.00
N4730  N     0.86109   0.53177   0.59818   0.12311  Uiso   1.00
N4731  N     0.86224   0.55338   0.64186   0.12311  Uiso   1.00
H4732  H     0.84432   0.51889   0.55542   0.12311  Uiso   1.00
H4733  H     0.84770   0.58257   0.68415   0.12311  Uiso   1.00
H4734  H     0.79849   0.51398   0.57671   0.12311  Uiso   1.00
H4735  H     0.82158   0.51152   0.56742   0.12311  Uiso   1.00
H4736  H     0.95862   0.68218   0.61959   0.12311  Uiso   0.00
C4737  C     0.97298   0.65674   0.58448   0.12311  Uiso   1.00
C4738  C     0.97483   0.69171   0.65517   0.12311  Uiso   1.00
C4739  C     0.96602   0.67833   0.61971   0.12311  Uiso   1.00
C4740  C     0.95122   0.68604   0.61948   0.12311  Uiso   1.00
C4741  C     0.92918   0.65868   0.59631   0.12311  Uiso   1.00
C4742  C     0.94289   0.65721   0.59080   0.12311  Uiso   1.00
N4743  N     0.98609   0.65677   0.59818   0.12311  Uiso   1.00
N4744  N     0.98724   0.67838   0.64186   0.12311  Uiso   1.00
H4745  H     0.96932   0.64389   0.55542   0.12311  Uiso   1.00
H4746  H     0.97270   0.70757   0.68415   0.12311  Uiso   1.00
H4747  H     0.92349   0.63898   0.57671   0.12311  Uiso   1.00
H4748  H     0.94658   0.63652   0.56742   0.12311  Uiso   1.00
Fe4749 Fe    0.75000   0.61461   0.56250   0.12311  Uiso   1.00
Fe4750 Fe    0.87500   0.73961   0.56250   0.12311  Uiso   1.00
Fe4751 Fe    0.75000   0.63539   0.68750   0.12311  Uiso   1.00
Fe4752 Fe    0.87500   0.51039   0.68750   0.12311  Uiso   1.00
H4753  H     0.08362   0.94282   0.74459   0.12311  Uiso   0.00
C4754  C     0.09798   0.96826   0.70948   0.12311  Uiso   1.00
C4755  C     0.09983   0.93329   0.53017   0.12311  Uiso   1.00
C4756  C     0.09102   0.94667   0.74471   0.12311  Uiso   1.00
C4757  C     0.07622   0.93896   0.74448   0.12311  Uiso   1.00
C4758  C     0.05418   0.96632   0.72131   0.12311  Uiso   1.00
C4759  C     0.06789   0.96779   0.71580   0.12311  Uiso   1.00
N4760  N     0.11109   0.96823   0.72318   0.12311  Uiso   1.00
N4761  N     0.11224   0.94662   0.51686   0.12311  Uiso   1.00
H4762  H     0.09432   0.98111   0.68042   0.12311  Uiso   1.00
H4763  H     0.09770   0.91743   0.55915   0.12311  Uiso   1.00
H4764  H     0.04849   0.98602   0.70171   0.12311  Uiso   1.00
H4765  H     0.07158   0.98848   0.69242   0.12311  Uiso   1.00
H4766  H     0.20862   0.81782   0.74459   0.12311  Uiso   0.00
C4767  C     0.22298   0.84326   0.70948   0.12311  Uiso   1.00
C4768  C     0.22483   0.80829   0.53017   0.12311  Uiso   1.00
C4769  C     0.21602   0.82167   0.74471   0.12311  Uiso   1.00
C4770  C     0.20122   0.81396   0.74448   0.12311  Uiso   1.00
C4771  C     0.17918   0.84132   0.72131   0.12311  Uiso   1.00
C4772  C     0.19289   0.84279   0.71580   0.12311  Uiso   1.00
N4773  N     0.23609   0.84323   0.72318   0.12311  Uiso   1.00
N4774  N     0.23724   0.82162   0.51686   0.12311  Uiso   1.00
H4775  H     0.21932   0.85611   0.68042   0.12311  Uiso   1.00
H4776  H     0.22270   0.79243   0.55915   0.12311  Uiso   1.00
H4777  H     0.17349   0.86102   0.70171   0.12311  Uiso   1.00
H4778  H     0.19658   0.86348   0.69242   0.12311  Uiso   1.00
H4779  H     0.16638   0.94282   0.63041   0.12311  Uiso   0.00
C4780  C     0.15202   0.96826   0.66552   0.12311  Uiso   1.00
C4781  C     0.15017   0.93329   0.59483   0.12311  Uiso   1.00
C4782  C     0.15898   0.94667   0.63029   0.12311  Uiso   1.00
C4783  C     0.17378   0.93896   0.63052   0.12311  Uiso   1.00
C4784  C     0.19582   0.96632   0.65369   0.12311  Uiso   1.00
C4785  C     0.18211   0.96779   0.65920   0.12311  Uiso   1.00
N4786  N     0.13891   0.96823   0.65182   0.12311  Uiso   1.00
N4787  N     0.13776   0.94662   0.60814   0.12311  Uiso   1.00
H4788  H     0.15568   0.98111   0.69458   0.12311  Uiso   1.00
H4789  H     0.15230   0.91743   0.56585   0.12311  Uiso   1.00
H4790  H     0.20151   0.98602   0.67329   0.12311  Uiso   1.00
H4791  H     0.17842   0.98848   0.68258   0.12311  Uiso   1.00
H4792  H     0.04138   0.81782   0.63041   0.12311  Uiso   0.00
C4793  C     0.02702   0.84326   0.66552   0.12311  Uiso   1.00
C4794  C     0.02517   0.80829   0.59483   0.12311  Uiso   1.00
C4795  C     0.03398   0.82167   0.63029   0.12311  Uiso   1.00
C4796  C     0.04878   0.81396   0.63052   0.12311  Uiso   1.00
C4797  C     0.07082   0.84132   0.65369   0.12311  Uiso   1.00
C4798  C     0.05711   0.84279   0.65920   0.12311  Uiso   1.00
N4799  N     0.01391   0.84323   0.65182   0.12311  Uiso   1.00
N4800  N     0.01276   0.82162   0.60814   0.12311  Uiso   1.00
H4801  H     0.03068   0.85611   0.69458   0.12311  Uiso   1.00
H4802  H     0.02730   0.79243   0.56585   0.12311  Uiso   1.00
H4803  H     0.07651   0.86102   0.67329   0.12311  Uiso   1.00
H4804  H     0.05342   0.86348   0.68258   0.12311  Uiso   1.00
H4805  H     0.16638   0.80718   0.50541   0.12311  Uiso   0.00
C4806  C     0.15202   0.78174   0.54052   0.12311  Uiso   1.00
C4807  C     0.15017   0.81671   0.71983   0.12311  Uiso   1.00
C4808  C     0.15898   0.80333   0.50529   0.12311  Uiso   1.00
C4809  C     0.17378   0.81104   0.50552   0.12311  Uiso   1.00
C4810  C     0.19582   0.78368   0.52869   0.12311  Uiso   1.00
C4811  C     0.18211   0.78221   0.53420   0.12311  Uiso   1.00
N4812  N     0.13891   0.78177   0.52682   0.12311  Uiso   1.00
N4813  N     0.13776   0.80338   0.73314   0.12311  Uiso   1.00
H4814  H     0.15568   0.76889   0.56958   0.12311  Uiso   1.00
H4815  H     0.15230   0.83257   0.69085   0.12311  Uiso   1.00
H4816  H     0.20151   0.76398   0.54829   0.12311  Uiso   1.00
H4817  H     0.17842   0.76152   0.55758   0.12311  Uiso   1.00
H4818  H     0.04138   0.93218   0.50541   0.12311  Uiso   0.00
C4819  C     0.02702   0.90674   0.54052   0.12311  Uiso   1.00
C4820  C     0.02517   0.94171   0.71983   0.12311  Uiso   1.00
C4821  C     0.03398   0.92833   0.50529   0.12311  Uiso   1.00
C4822  C     0.04878   0.93604   0.50552   0.12311  Uiso   1.00
C4823  C     0.07082   0.90868   0.52869   0.12311  Uiso   1.00
C4824  C     0.05711   0.90721   0.53420   0.12311  Uiso   1.00
N4825  N     0.01391   0.90677   0.52682   0.12311  Uiso   1.00
N4826  N     0.01276   0.92838   0.73314   0.12311  Uiso   1.00
H4827  H     0.03068   0.89389   0.56958   0.12311  Uiso   1.00
H4828  H     0.02730   0.95757   0.69085   0.12311  Uiso   1.00
H4829  H     0.07651   0.88898   0.54829   0.12311  Uiso   1.00
H4830  H     0.05342   0.88652   0.55758   0.12311  Uiso   1.00
H4831  H     0.08362   0.80718   0.61959   0.12311  Uiso   0.00
C4832  C     0.09798   0.78174   0.58448   0.12311  Uiso   1.00
C4833  C     0.09983   0.81671   0.65517   0.12311  Uiso   1.00
C4834  C     0.09102   0.80333   0.61971   0.12311  Uiso   1.00
C4835  C     0.07622   0.81104   0.61948   0.12311  Uiso   1.00
C4836  C     0.05418   0.78368   0.59631   0.12311  Uiso   1.00
C4837  C     0.06789   0.78221   0.59080   0.12311  Uiso   1.00
N4838  N     0.11109   0.78177   0.59818   0.12311  Uiso   1.00
N4839  N     0.11224   0.80338   0.64186   0.12311  Uiso   1.00
H4840  H     0.09432   0.76889   0.55542   0.12311  Uiso   1.00
H4841  H     0.09770   0.83257   0.68415   0.12311  Uiso   1.00
H4842  H     0.04849   0.76398   0.57671   0.12311  Uiso   1.00
H4843  H     0.07158   0.76152   0.56742   0.12311  Uiso   1.00
H4844  H     0.20862   0.93218   0.61959   0.12311  Uiso   0.00
C4845  C     0.22298   0.90674   0.58448   0.12311  Uiso   1.00
C4846  C     0.22483   0.94171   0.65517   0.12311  Uiso   1.00
C4847  C     0.21602   0.92833   0.61971   0.12311  Uiso   1.00
C4848  C     0.20122   0.93604   0.61948   0.12311  Uiso   1.00
C4849  C     0.17918   0.90868   0.59631   0.12311  Uiso   1.00
C4850  C     0.19289   0.90721   0.59080   0.12311  Uiso   1.00
N4851  N     0.23609   0.90677   0.59818   0.12311  Uiso   1.00
N4852  N     0.23724   0.92838   0.64186   0.12311  Uiso   1.00
H4853  H     0.21932   0.89389   0.55542   0.12311  Uiso   1.00
H4854  H     0.22270   0.95757   0.68415   0.12311  Uiso   1.00
H4855  H     0.17349   0.88898   0.57671   0.12311  Uiso   1.00
H4856  H     0.19658   0.88652   0.56742   0.12311  Uiso   1.00
Fe4857 Fe    0.00000   0.86461   0.56250   0.12311  Uiso   1.00
Fe4858 Fe    0.12500   0.98961   0.56250   0.12311  Uiso   1.00
Fe4859 Fe    0.00000   0.88539   0.68750   0.12311  Uiso   1.00
Fe4860 Fe    0.12500   0.76039   0.68750   0.12311  Uiso   1.00
H4861  H     0.33362   0.94282   0.74459   0.12311  Uiso   0.00
C4862  C     0.34798   0.96826   0.70948   0.12311  Uiso   1.00
C4863  C     0.34983   0.93329   0.53017   0.12311  Uiso   1.00
C4864  C     0.34102   0.94667   0.74471   0.12311  Uiso   1.00
C4865  C     0.32622   0.93896   0.74448   0.12311  Uiso   1.00
C4866  C     0.30418   0.96632   0.72131   0.12311  Uiso   1.00
C4867  C     0.31789   0.96779   0.71580   0.12311  Uiso   1.00
N4868  N     0.36109   0.96823   0.72318   0.12311  Uiso   1.00
N4869  N     0.36224   0.94662   0.51686   0.12311  Uiso   1.00
H4870  H     0.34432   0.98111   0.68042   0.12311  Uiso   1.00
H4871  H     0.34770   0.91743   0.55915   0.12311  Uiso   1.00
H4872  H     0.29849   0.98602   0.70171   0.12311  Uiso   1.00
H4873  H     0.32158   0.98848   0.69242   0.12311  Uiso   1.00
H4874  H     0.45862   0.81782   0.74459   0.12311  Uiso   0.00
C4875  C     0.47298   0.84326   0.70948   0.12311  Uiso   1.00
C4876  C     0.47483   0.80829   0.53017   0.12311  Uiso   1.00
C4877  C     0.46602   0.82167   0.74471   0.12311  Uiso   1.00
C4878  C     0.45122   0.81396   0.74448   0.12311  Uiso   1.00
C4879  C     0.42918   0.84132   0.72131   0.12311  Uiso   1.00
C4880  C     0.44289   0.84279   0.71580   0.12311  Uiso   1.00
N4881  N     0.48609   0.84323   0.72318   0.12311  Uiso   1.00
N4882  N     0.48724   0.82162   0.51686   0.12311  Uiso   1.00
H4883  H     0.46932   0.85611   0.68042   0.12311  Uiso   1.00
H4884  H     0.47270   0.79243   0.55915   0.12311  Uiso   1.00
H4885  H     0.42349   0.86102   0.70171   0.12311  Uiso   1.00
H4886  H     0.44658   0.86348   0.69242   0.12311  Uiso   1.00
H4887  H     0.41638   0.94282   0.63041   0.12311  Uiso   0.00
C4888  C     0.40202   0.96826   0.66552   0.12311  Uiso   1.00
C4889  C     0.40017   0.93329   0.59483   0.12311  Uiso   1.00
C4890  C     0.40898   0.94667   0.63029   0.12311  Uiso   1.00
C4891  C     0.42378   0.93896   0.63052   0.12311  Uiso   1.00
C4892  C     0.44582   0.96632   0.65369   0.12311  Uiso   1.00
C4893  C     0.43211   0.96779   0.65920   0.12311  Uiso   1.00
N4894  N     0.38891   0.96823   0.65182   0.12311  Uiso   1.00
N4895  N     0.38776   0.94662   0.60814   0.12311  Uiso   1.00
H4896  H     0.40568   0.98111   0.69458   0.12311  Uiso   1.00
H4897  H     0.40230   0.91743   0.56585   0.12311  Uiso   1.00
H4898  H     0.45151   0.98602   0.67329   0.12311  Uiso   1.00
H4899  H     0.42842   0.98848   0.68258   0.12311  Uiso   1.00
H4900  H     0.29138   0.81782   0.63041   0.12311  Uiso   0.00
C4901  C     0.27702   0.84326   0.66552   0.12311  Uiso   1.00
C4902  C     0.27517   0.80829   0.59483   0.12311  Uiso   1.00
C4903  C     0.28398   0.82167   0.63029   0.12311  Uiso   1.00
C4904  C     0.29878   0.81396   0.63052   0.12311  Uiso   1.00
C4905  C     0.32082   0.84132   0.65369   0.12311  Uiso   1.00
C4906  C     0.30711   0.84279   0.65920   0.12311  Uiso   1.00
N4907  N     0.26391   0.84323   0.65182   0.12311  Uiso   1.00
N4908  N     0.26276   0.82162   0.60814   0.12311  Uiso   1.00
H4909  H     0.28068   0.85611   0.69458   0.12311  Uiso   1.00
H4910  H     0.27730   0.79243   0.56585   0.12311  Uiso   1.00
H4911  H     0.32651   0.86102   0.67329   0.12311  Uiso   1.00
H4912  H     0.30342   0.86348   0.68258   0.12311  Uiso   1.00
H4913  H     0.41638   0.80718   0.50541   0.12311  Uiso   0.00
C4914  C     0.40202   0.78174   0.54052   0.12311  Uiso   1.00
C4915  C     0.40017   0.81671   0.71983   0.12311  Uiso   1.00
C4916  C     0.40898   0.80333   0.50529   0.12311  Uiso   1.00
C4917  C     0.42378   0.81104   0.50552   0.12311  Uiso   1.00
C4918  C     0.44582   0.78368   0.52869   0.12311  Uiso   1.00
C4919  C     0.43211   0.78221   0.53420   0.12311  Uiso   1.00
N4920  N     0.38891   0.78177   0.52682   0.12311  Uiso   1.00
N4921  N     0.38776   0.80338   0.73314   0.12311  Uiso   1.00
H4922  H     0.40568   0.76889   0.56958   0.12311  Uiso   1.00
H4923  H     0.40230   0.83257   0.69085   0.12311  Uiso   1.00
H4924  H     0.45151   0.76398   0.54829   0.12311  Uiso   1.00
H4925  H     0.42842   0.76152   0.55758   0.12311  Uiso   1.00
H4926  H     0.29138   0.93218   0.50541   0.12311  Uiso   0.00
C4927  C     0.27702   0.90674   0.54052   0.12311  Uiso   1.00
C4928  C     0.27517   0.94171   0.71983   0.12311  Uiso   1.00
C4929  C     0.28398   0.92833   0.50529   0.12311  Uiso   1.00
C4930  C     0.29878   0.93604   0.50552   0.12311  Uiso   1.00
C4931  C     0.32082   0.90868   0.52869   0.12311  Uiso   1.00
C4932  C     0.30711   0.90721   0.53420   0.12311  Uiso   1.00
N4933  N     0.26391   0.90677   0.52682   0.12311  Uiso   1.00
N4934  N     0.26276   0.92838   0.73314   0.12311  Uiso   1.00
H4935  H     0.28068   0.89389   0.56958   0.12311  Uiso   1.00
H4936  H     0.27730   0.95757   0.69085   0.12311  Uiso   1.00
H4937  H     0.32651   0.88898   0.54829   0.12311  Uiso   1.00
H4938  H     0.30342   0.88652   0.55758   0.12311  Uiso   1.00
H4939  H     0.33362   0.80718   0.61959   0.12311  Uiso   0.00
C4940  C     0.34798   0.78174   0.58448   0.12311  Uiso   1.00
C4941  C     0.34983   0.81671   0.65517   0.12311  Uiso   1.00
C4942  C     0.34102   0.80333   0.61971   0.12311  Uiso   1.00
C4943  C     0.32622   0.81104   0.61948   0.12311  Uiso   1.00
C4944  C     0.30418   0.78368   0.59631   0.12311  Uiso   1.00
C4945  C     0.31789   0.78221   0.59080   0.12311  Uiso   1.00
N4946  N     0.36109   0.78177   0.59818   0.12311  Uiso   1.00
N4947  N     0.36224   0.80338   0.64186   0.12311  Uiso   1.00
H4948  H     0.34432   0.76889   0.55542   0.12311  Uiso   1.00
H4949  H     0.34770   0.83257   0.68415   0.12311  Uiso   1.00
H4950  H     0.29849   0.76398   0.57671   0.12311  Uiso   1.00
H4951  H     0.32158   0.76152   0.56742   0.12311  Uiso   1.00
H4952  H     0.45862   0.93218   0.61959   0.12311  Uiso   0.00
C4953  C     0.47298   0.90674   0.58448   0.12311  Uiso   1.00
C4954  C     0.47483   0.94171   0.65517   0.12311  Uiso   1.00
C4955  C     0.46602   0.92833   0.61971   0.12311  Uiso   1.00
C4956  C     0.45122   0.93604   0.61948   0.12311  Uiso   1.00
C4957  C     0.42918   0.90868   0.59631   0.12311  Uiso   1.00
C4958  C     0.44289   0.90721   0.59080   0.12311  Uiso   1.00
N4959  N     0.48609   0.90677   0.59818   0.12311  Uiso   1.00
N4960  N     0.48724   0.92838   0.64186   0.12311  Uiso   1.00
H4961  H     0.46932   0.89389   0.55542   0.12311  Uiso   1.00
H4962  H     0.47270   0.95757   0.68415   0.12311  Uiso   1.00
H4963  H     0.42349   0.88898   0.57671   0.12311  Uiso   1.00
H4964  H     0.44658   0.88652   0.56742   0.12311  Uiso   1.00
Fe4965 Fe    0.25000   0.86461   0.56250   0.12311  Uiso   1.00
Fe4966 Fe    0.37500   0.98961   0.56250   0.12311  Uiso   1.00
Fe4967 Fe    0.25000   0.88539   0.68750   0.12311  Uiso   1.00
Fe4968 Fe    0.37500   0.76039   0.68750   0.12311  Uiso   1.00
H4969  H     0.58362   0.94282   0.74459   0.12311  Uiso   0.00
C4970  C     0.59798   0.96826   0.70948   0.12311  Uiso   1.00
C4971  C     0.59983   0.93329   0.53017   0.12311  Uiso   1.00
C4972  C     0.59102   0.94667   0.74471   0.12311  Uiso   1.00
C4973  C     0.57622   0.93896   0.74448   0.12311  Uiso   1.00
C4974  C     0.55418   0.96632   0.72131   0.12311  Uiso   1.00
C4975  C     0.56789   0.96779   0.71580   0.12311  Uiso   1.00
N4976  N     0.61109   0.96823   0.72318   0.12311  Uiso   1.00
N4977  N     0.61224   0.94662   0.51686   0.12311  Uiso   1.00
H4978  H     0.59432   0.98111   0.68042   0.12311  Uiso   1.00
H4979  H     0.59770   0.91743   0.55915   0.12311  Uiso   1.00
H4980  H     0.54849   0.98602   0.70171   0.12311  Uiso   1.00
H4981  H     0.57158   0.98848   0.69242   0.12311  Uiso   1.00
H4982  H     0.70862   0.81782   0.74459   0.12311  Uiso   0.00
C4983  C     0.72298   0.84326   0.70948   0.12311  Uiso   1.00
C4984  C     0.72483   0.80829   0.53017   0.12311  Uiso   1.00
C4985  C     0.71602   0.82167   0.74471   0.12311  Uiso   1.00
C4986  C     0.70122   0.81396   0.74448   0.12311  Uiso   1.00
C4987  C     0.67918   0.84132   0.72131   0.12311  Uiso   1.00
C4988  C     0.69289   0.84279   0.71580   0.12311  Uiso   1.00
N4989  N     0.73609   0.84323   0.72318   0.12311  Uiso   1.00
N4990  N     0.73724   0.82162   0.51686   0.12311  Uiso   1.00
H4991  H     0.71932   0.85611   0.68042   0.12311  Uiso   1.00
H4992  H     0.72270   0.79243   0.55915   0.12311  Uiso   1.00
H4993  H     0.67349   0.86102   0.70171   0.12311  Uiso   1.00
H4994  H     0.69658   0.86348   0.69242   0.12311  Uiso   1.00
H4995  H     0.66638   0.94282   0.63041   0.12311  Uiso   0.00
C4996  C     0.65202   0.96826   0.66552   0.12311  Uiso   1.00
C4997  C     0.65017   0.93329   0.59483   0.12311  Uiso   1.00
C4998  C     0.65898   0.94667   0.63029   0.12311  Uiso   1.00
C4999  C     0.67378   0.93896   0.63052   0.12311  Uiso   1.00
C5000  C     0.69582   0.96632   0.65369   0.12311  Uiso   1.00
C5001  C     0.68211   0.96779   0.65920   0.12311  Uiso   1.00
N5002  N     0.63891   0.96823   0.65182   0.12311  Uiso   1.00
N5003  N     0.63776   0.94662   0.60814   0.12311  Uiso   1.00
H5004  H     0.65568   0.98111   0.69458   0.12311  Uiso   1.00
H5005  H     0.65230   0.91743   0.56585   0.12311  Uiso   1.00
H5006  H     0.70151   0.98602   0.67329   0.12311  Uiso   1.00
H5007  H     0.67842   0.98848   0.68258   0.12311  Uiso   1.00
H5008  H     0.54138   0.81782   0.63041   0.12311  Uiso   0.00
C5009  C     0.52702   0.84326   0.66552   0.12311  Uiso   1.00
C5010  C     0.52517   0.80829   0.59483   0.12311  Uiso   1.00
C5011  C     0.53398   0.82167   0.63029   0.12311  Uiso   1.00
C5012  C     0.54878   0.81396   0.63052   0.12311  Uiso   1.00
C5013  C     0.57082   0.84132   0.65369   0.12311  Uiso   1.00
C5014  C     0.55711   0.84279   0.65920   0.12311  Uiso   1.00
N5015  N     0.51391   0.84323   0.65182   0.12311  Uiso   1.00
N5016  N     0.51276   0.82162   0.60814   0.12311  Uiso   1.00
H5017  H     0.53068   0.85611   0.69458   0.12311  Uiso   1.00
H5018  H     0.52730   0.79243   0.56585   0.12311  Uiso   1.00
H5019  H     0.57651   0.86102   0.67329   0.12311  Uiso   1.00
H5020  H     0.55342   0.86348   0.68258   0.12311  Uiso   1.00
H5021  H     0.66638   0.80718   0.50541   0.12311  Uiso   0.00
C5022  C     0.65202   0.78174   0.54052   0.12311  Uiso   1.00
C5023  C     0.65017   0.81671   0.71983   0.12311  Uiso   1.00
C5024  C     0.65898   0.80333   0.50529   0.12311  Uiso   1.00
C5025  C     0.67378   0.81104   0.50552   0.12311  Uiso   1.00
C5026  C     0.69582   0.78368   0.52869   0.12311  Uiso   1.00
C5027  C     0.68211   0.78221   0.53420   0.12311  Uiso   1.00
N5028  N     0.63891   0.78177   0.52682   0.12311  Uiso   1.00
N5029  N     0.63776   0.80338   0.73314   0.12311  Uiso   1.00
H5030  H     0.65568   0.76889   0.56958   0.12311  Uiso   1.00
H5031  H     0.65230   0.83257   0.69085   0.12311  Uiso   1.00
H5032  H     0.70151   0.76398   0.54829   0.12311  Uiso   1.00
H5033  H     0.67842   0.76152   0.55758   0.12311  Uiso   1.00
H5034  H     0.54138   0.93218   0.50541   0.12311  Uiso   0.00
C5035  C     0.52702   0.90674   0.54052   0.12311  Uiso   1.00
C5036  C     0.52517   0.94171   0.71983   0.12311  Uiso   1.00
C5037  C     0.53398   0.92833   0.50529   0.12311  Uiso   1.00
C5038  C     0.54878   0.93604   0.50552   0.12311  Uiso   1.00
C5039  C     0.57082   0.90868   0.52869   0.12311  Uiso   1.00
C5040  C     0.55711   0.90721   0.53420   0.12311  Uiso   1.00
N5041  N     0.51391   0.90677   0.52682   0.12311  Uiso   1.00
N5042  N     0.51276   0.92838   0.73314   0.12311  Uiso   1.00
H5043  H     0.53068   0.89389   0.56958   0.12311  Uiso   1.00
H5044  H     0.52730   0.95757   0.69085   0.12311  Uiso   1.00
H5045  H     0.57651   0.88898   0.54829   0.12311  Uiso   1.00
H5046  H     0.55342   0.88652   0.55758   0.12311  Uiso   1.00
H5047  H     0.58362   0.80718   0.61959   0.12311  Uiso   0.00
C5048  C     0.59798   0.78174   0.58448   0.12311  Uiso   1.00
C5049  C     0.59983   0.81671   0.65517   0.12311  Uiso   1.00
C5050  C     0.59102   0.80333   0.61971   0.12311  Uiso   1.00
C5051  C     0.57622   0.81104   0.61948   0.12311  Uiso   1.00
C5052  C     0.55418   0.78368   0.59631   0.12311  Uiso   1.00
C5053  C     0.56789   0.78221   0.59080   0.12311  Uiso   1.00
N5054  N     0.61109   0.78177   0.59818   0.12311  Uiso   1.00
N5055  N     0.61224   0.80338   0.64186   0.12311  Uiso   1.00
H5056  H     0.59432   0.76889   0.55542   0.12311  Uiso   1.00
H5057  H     0.59770   0.83257   0.68415   0.12311  Uiso   1.00
H5058  H     0.54849   0.76398   0.57671   0.12311  Uiso   1.00
H5059  H     0.57158   0.76152   0.56742   0.12311  Uiso   1.00
H5060  H     0.70862   0.93218   0.61959   0.12311  Uiso   0.00
C5061  C     0.72298   0.90674   0.58448   0.12311  Uiso   1.00
C5062  C     0.72483   0.94171   0.65517   0.12311  Uiso   1.00
C5063  C     0.71602   0.92833   0.61971   0.12311  Uiso   1.00
C5064  C     0.70122   0.93604   0.61948   0.12311  Uiso   1.00
C5065  C     0.67918   0.90868   0.59631   0.12311  Uiso   1.00
C5066  C     0.69289   0.90721   0.59080   0.12311  Uiso   1.00
N5067  N     0.73609   0.90677   0.59818   0.12311  Uiso   1.00
N5068  N     0.73724   0.92838   0.64186   0.12311  Uiso   1.00
H5069  H     0.71932   0.89389   0.55542   0.12311  Uiso   1.00
H5070  H     0.72270   0.95757   0.68415   0.12311  Uiso   1.00
H5071  H     0.67349   0.88898   0.57671   0.12311  Uiso   1.00
H5072  H     0.69658   0.88652   0.56742   0.12311  Uiso   1.00
Fe5073 Fe    0.50000   0.86461   0.56250   0.12311  Uiso   1.00
Fe5074 Fe    0.62500   0.98961   0.56250   0.12311  Uiso   1.00
Fe5075 Fe    0.50000   0.88539   0.68750   0.12311  Uiso   1.00
Fe5076 Fe    0.62500   0.76039   0.68750   0.12311  Uiso   1.00
H5077  H     0.83362   0.94282   0.74459   0.12311  Uiso   0.00
C5078  C     0.84798   0.96826   0.70948   0.12311  Uiso   1.00
C5079  C     0.84983   0.93329   0.53017   0.12311  Uiso   1.00
C5080  C     0.84102   0.94667   0.74471   0.12311  Uiso   1.00
C5081  C     0.82622   0.93896   0.74448   0.12311  Uiso   1.00
C5082  C     0.80418   0.96632   0.72131   0.12311  Uiso   1.00
C5083  C     0.81789   0.96779   0.71580   0.12311  Uiso   1.00
N5084  N     0.86109   0.96823   0.72318   0.12311  Uiso   1.00
N5085  N     0.86224   0.94662   0.51686   0.12311  Uiso   1.00
H5086  H     0.84432   0.98111   0.68042   0.12311  Uiso   1.00
H5087  H     0.84770   0.91743   0.55915   0.12311  Uiso   1.00
H5088  H     0.79849   0.98602   0.70171   0.12311  Uiso   1.00
H5089  H     0.82158   0.98848   0.69242   0.12311  Uiso   1.00
H5090  H     0.95862   0.81782   0.74459   0.12311  Uiso   0.00
C5091  C     0.97298   0.84326   0.70948   0.12311  Uiso   1.00
C5092  C     0.97483   0.80829   0.53017   0.12311  Uiso   1.00
C5093  C     0.96602   0.82167   0.74471   0.12311  Uiso   1.00
C5094  C     0.95122   0.81396   0.74448   0.12311  Uiso   1.00
C5095  C     0.92918   0.84132   0.72131   0.12311  Uiso   1.00
C5096  C     0.94289   0.84279   0.71580   0.12311  Uiso   1.00
N5097  N     0.98609   0.84323   0.72318   0.12311  Uiso   1.00
N5098  N     0.98724   0.82162   0.51686   0.12311  Uiso   1.00
H5099  H     0.96932   0.85611   0.68042   0.12311  Uiso   1.00
H5100  H     0.97270   0.79243   0.55915   0.12311  Uiso   1.00
H5101  H     0.92349   0.86102   0.70171   0.12311  Uiso   1.00
H5102  H     0.94658   0.86348   0.69242   0.12311  Uiso   1.00
H5103  H     0.91638   0.94282   0.63041   0.12311  Uiso   0.00
C5104  C     0.90202   0.96826   0.66552   0.12311  Uiso   1.00
C5105  C     0.90017   0.93329   0.59483   0.12311  Uiso   1.00
C5106  C     0.90898   0.94667   0.63029   0.12311  Uiso   1.00
C5107  C     0.92378   0.93896   0.63052   0.12311  Uiso   1.00
C5108  C     0.94582   0.96632   0.65369   0.12311  Uiso   1.00
C5109  C     0.93211   0.96779   0.65920   0.12311  Uiso   1.00
N5110  N     0.88891   0.96823   0.65182   0.12311  Uiso   1.00
N5111  N     0.88776   0.94662   0.60814   0.12311  Uiso   1.00
H5112  H     0.90568   0.98111   0.69458   0.12311  Uiso   1.00
H5113  H     0.90230   0.91743   0.56585   0.12311  Uiso   1.00
H5114  H     0.95151   0.98602   0.67329   0.12311  Uiso   1.00
H5115  H     0.92842   0.98848   0.68258   0.12311  Uiso   1.00
H5116  H     0.79138   0.81782   0.63041   0.12311  Uiso   0.00
C5117  C     0.77702   0.84326   0.66552   0.12311  Uiso   1.00
C5118  C     0.77517   0.80829   0.59483   0.12311  Uiso   1.00
C5119  C     0.78398   0.82167   0.63029   0.12311  Uiso   1.00
C5120  C     0.79878   0.81396   0.63052   0.12311  Uiso   1.00
C5121  C     0.82082   0.84132   0.65369   0.12311  Uiso   1.00
C5122  C     0.80711   0.84279   0.65920   0.12311  Uiso   1.00
N5123  N     0.76391   0.84323   0.65182   0.12311  Uiso   1.00
N5124  N     0.76276   0.82162   0.60814   0.12311  Uiso   1.00
H5125  H     0.78068   0.85611   0.69458   0.12311  Uiso   1.00
H5126  H     0.77730   0.79243   0.56585   0.12311  Uiso   1.00
H5127  H     0.82651   0.86102   0.67329   0.12311  Uiso   1.00
H5128  H     0.80342   0.86348   0.68258   0.12311  Uiso   1.00
H5129  H     0.91638   0.80718   0.50541   0.12311  Uiso   0.00
C5130  C     0.90202   0.78174   0.54052   0.12311  Uiso   1.00
C5131  C     0.90017   0.81671   0.71983   0.12311  Uiso   1.00
C5132  C     0.90898   0.80333   0.50529   0.12311  Uiso   1.00
C5133  C     0.92378   0.81104   0.50552   0.12311  Uiso   1.00
C5134  C     0.94582   0.78368   0.52869   0.12311  Uiso   1.00
C5135  C     0.93211   0.78221   0.53420   0.12311  Uiso   1.00
N5136  N     0.88891   0.78177   0.52682   0.12311  Uiso   1.00
N5137  N     0.88776   0.80338   0.73314   0.12311  Uiso   1.00
H5138  H     0.90568   0.76889   0.56958   0.12311  Uiso   1.00
H5139  H     0.90230   0.83257   0.69085   0.12311  Uiso   1.00
H5140  H     0.95151   0.76398   0.54829   0.12311  Uiso   1.00
H5141  H     0.92842   0.76152   0.55758   0.12311  Uiso   1.00
H5142  H     0.79138   0.93218   0.50541   0.12311  Uiso   0.00
C5143  C     0.77702   0.90674   0.54052   0.12311  Uiso   1.00
C5144  C     0.77517   0.94171   0.71983   0.12311  Uiso   1.00
C5145  C     0.78398   0.92833   0.50529   0.12311  Uiso   1.00
C5146  C     0.79878   0.93604   0.50552   0.12311  Uiso   1.00
C5147  C     0.82082   0.90868   0.52869   0.12311  Uiso   1.00
C5148  C     0.80711   0.90721   0.53420   0.12311  Uiso   1.00
N5149  N     0.76391   0.90677   0.52682   0.12311  Uiso   1.00
N5150  N     0.76276   0.92838   0.73314   0.12311  Uiso   1.00
H5151  H     0.78068   0.89389   0.56958   0.12311  Uiso   1.00
H5152  H     0.77730   0.95757   0.69085   0.12311  Uiso   1.00
H5153  H     0.82651   0.88898   0.54829   0.12311  Uiso   1.00
H5154  H     0.80342   0.88652   0.55758   0.12311  Uiso   1.00
H5155  H     0.83362   0.80718   0.61959   0.12311  Uiso   0.00
C5156  C     0.84798   0.78174   0.58448   0.12311  Uiso   1.00
C5157  C     0.84983   0.81671   0.65517   0.12311  Uiso   1.00
C5158  C     0.84102   0.80333   0.61971   0.12311  Uiso   1.00
C5159  C     0.82622   0.81104   0.61948   0.12311  Uiso   1.00
C5160  C     0.80418   0.78368   0.59631   0.12311  Uiso   1.00
C5161  C     0.81789   0.78221   0.59080   0.12311  Uiso   1.00
N5162  N     0.86109   0.78177   0.59818   0.12311  Uiso   1.00
N5163  N     0.86224   0.80338   0.64186   0.12311  Uiso   1.00
H5164  H     0.84432   0.76889   0.55542   0.12311  Uiso   1.00
H5165  H     0.84770   0.83257   0.68415   0.12311  Uiso   1.00
H5166  H     0.79849   0.76398   0.57671   0.12311  Uiso   1.00
H5167  H     0.82158   0.76152   0.56742   0.12311  Uiso   1.00
H5168  H     0.95862   0.93218   0.61959   0.12311  Uiso   0.00
C5169  C     0.97298   0.90674   0.58448   0.12311  Uiso   1.00
C5170  C     0.97483   0.94171   0.65517   0.12311  Uiso   1.00
C5171  C     0.96602   0.92833   0.61971   0.12311  Uiso   1.00
C5172  C     0.95122   0.93604   0.61948   0.12311  Uiso   1.00
C5173  C     0.92918   0.90868   0.59631   0.12311  Uiso   1.00
C5174  C     0.94289   0.90721   0.59080   0.12311  Uiso   1.00
N5175  N     0.98609   0.90677   0.59818   0.12311  Uiso   1.00
N5176  N     0.98724   0.92838   0.64186   0.12311  Uiso   1.00
H5177  H     0.96932   0.89389   0.55542   0.12311  Uiso   1.00
H5178  H     0.97270   0.95757   0.68415   0.12311  Uiso   1.00
H5179  H     0.92349   0.88898   0.57671   0.12311  Uiso   1.00
H5180  H     0.94658   0.88652   0.56742   0.12311  Uiso   1.00
Fe5181 Fe    0.75000   0.86461   0.56250   0.12311  Uiso   1.00
Fe5182 Fe    0.87500   0.98961   0.56250   0.12311  Uiso   1.00
Fe5183 Fe    0.75000   0.88539   0.68750   0.12311  Uiso   1.00
Fe5184 Fe    0.87500   0.76039   0.68750   0.12311  Uiso   1.00
H5185  H     0.08362   0.19282   0.99459   0.12311  Uiso   0.00
C5186  C     0.09798   0.21826   0.95948   0.12311  Uiso   1.00
C5187  C     0.09983   0.18329   0.78017   0.12311  Uiso   1.00
C5188  C     0.09102   0.19667   0.99471   0.12311  Uiso   1.00
C5189  C     0.07622   0.18896   0.99448   0.12311  Uiso   1.00
C5190  C     0.05418   0.21632   0.97131   0.12311  Uiso   1.00
C5191  C     0.06789   0.21779   0.96580   0.12311  Uiso   1.00
N5192  N     0.11109   0.21823   0.97318   0.12311  Uiso   1.00
N5193  N     0.11224   0.19662   0.76686   0.12311  Uiso   1.00
H5194  H     0.09432   0.23111   0.93042   0.12311  Uiso   1.00
H5195  H     0.09770   0.16743   0.80915   0.12311  Uiso   1.00
H5196  H     0.04849   0.23602   0.95171   0.12311  Uiso   1.00
H5197  H     0.07158   0.23848   0.94242   0.12311  Uiso   1.00
H5198  H     0.20862   0.06782   0.99459   0.12311  Uiso   0.00
C5199  C     0.22298   0.09326   0.95948   0.12311  Uiso   1.00
C5200  C     0.22483   0.05829   0.78017   0.12311  Uiso   1.00
C5201  C     0.21602   0.07167   0.99471   0.12311  Uiso   1.00
C5202  C     0.20122   0.06396   0.99448   0.12311  Uiso   1.00
C5203  C     0.17918   0.09132   0.97131   0.12311  Uiso   1.00
C5204  C     0.19289   0.09279   0.96580   0.12311  Uiso   1.00
N5205  N     0.23609   0.09323   0.97318   0.12311  Uiso   1.00
N5206  N     0.23724   0.07162   0.76686   0.12311  Uiso   1.00
H5207  H     0.21932   0.10611   0.93042   0.12311  Uiso   1.00
H5208  H     0.22270   0.04243   0.80915   0.12311  Uiso   1.00
H5209  H     0.17349   0.11102   0.95171   0.12311  Uiso   1.00
H5210  H     0.19658   0.11348   0.94242   0.12311  Uiso   1.00
H5211  H     0.16638   0.19282   0.88041   0.12311  Uiso   0.00
C5212  C     0.15202   0.21826   0.91552   0.12311  Uiso   1.00
C5213  C     0.15017   0.18329   0.84483   0.12311  Uiso   1.00
C5214  C     0.15898   0.19667   0.88029   0.12311  Uiso   1.00
C5215  C     0.17378   0.18896   0.88052   0.12311  Uiso   1.00
C5216  C     0.19582   0.21632   0.90369   0.12311  Uiso   1.00
C5217  C     0.18211   0.21779   0.90920   0.12311  Uiso   1.00
N5218  N     0.13891   0.21823   0.90182   0.12311  Uiso   1.00
N5219  N     0.13776   0.19662   0.85814   0.12311  Uiso   1.00
H5220  H     0.15568   0.23111   0.94458   0.12311  Uiso   1.00
H5221  H     0.15230   0.16743   0.81585   0.12311  Uiso   1.00
H5222  H     0.20151   0.23602   0.92329   0.12311  Uiso   1.00
H5223  H     0.17842   0.23848   0.93258   0.12311  Uiso   1.00
H5224  H     0.04138   0.06782   0.88041   0.12311  Uiso   0.00
C5225  C     0.02702   0.09326   0.91552   0.12311  Uiso   1.00
C5226  C     0.02517   0.05829   0.84483   0.12311  Uiso   1.00
C5227  C     0.03398   0.07167   0.88029   0.12311  Uiso   1.00
C5228  C     0.04878   0.06396   0.88052   0.12311  Uiso   1.00
C5229  C     0.07082   0.09132   0.90369   0.12311  Uiso   1.00
C5230  C     0.05711   0.09279   0.90920   0.12311  Uiso   1.00
N5231  N     0.01391   0.09323   0.90182   0.12311  Uiso   1.00
N5232  N     0.01276   0.07162   0.85814   0.12311  Uiso   1.00
H5233  H     0.03068   0.10611   0.94458   0.12311  Uiso   1.00
H5234  H     0.02730   0.04243   0.81585   0.12311  Uiso   1.00
H5235  H     0.07651   0.11102   0.92329   0.12311  Uiso   1.00
H5236  H     0.05342   0.11348   0.93258   0.12311  Uiso   1.00
H5237  H     0.16638   0.05718   0.75541   0.12311  Uiso   0.00
C5238  C     0.15202   0.03174   0.79052   0.12311  Uiso   1.00
C5239  C     0.15017   0.06671   0.96983   0.12311  Uiso   1.00
C5240  C     0.15898   0.05333   0.75529   0.12311  Uiso   1.00
C5241  C     0.17378   0.06104   0.75552   0.12311  Uiso   1.00
C5242  C     0.19582   0.03368   0.77869   0.12311  Uiso   1.00
C5243  C     0.18211   0.03221   0.78420   0.12311  Uiso   1.00
N5244  N     0.13891   0.03177   0.77682   0.12311  Uiso   1.00
N5245  N     0.13776   0.05338   0.98314   0.12311  Uiso   1.00
H5246  H     0.15568   0.01889   0.81958   0.12311  Uiso   1.00
H5247  H     0.15230   0.08257   0.94085   0.12311  Uiso   1.00
H5248  H     0.20151   0.01398   0.79829   0.12311  Uiso   1.00
H5249  H     0.17842   0.01152   0.80758   0.12311  Uiso   1.00
H5250  H     0.04138   0.18218   0.75541   0.12311  Uiso   0.00
C5251  C     0.02702   0.15674   0.79052   0.12311  Uiso   1.00
C5252  C     0.02517   0.19171   0.96983   0.12311  Uiso   1.00
C5253  C     0.03398   0.17833   0.75529   0.12311  Uiso   1.00
C5254  C     0.04878   0.18604   0.75552   0.12311  Uiso   1.00
C5255  C     0.07082   0.15868   0.77869   0.12311  Uiso   1.00
C5256  C     0.05711   0.15721   0.78420   0.12311  Uiso   1.00
N5257  N     0.01391   0.15677   0.77682   0.12311  Uiso   1.00
N5258  N     0.01276   0.17838   0.98314   0.12311  Uiso   1.00
H5259  H     0.03068   0.14389   0.81958   0.12311  Uiso   1.00
H5260  H     0.02730   0.20757   0.94085   0.12311  Uiso   1.00
H5261  H     0.07651   0.13898   0.79829   0.12311  Uiso   1.00
H5262  H     0.05342   0.13652   0.80758   0.12311  Uiso   1.00
H5263  H     0.08362   0.05718   0.86959   0.12311  Uiso   0.00
C5264  C     0.09798   0.03174   0.83448   0.12311  Uiso   1.00
C5265  C     0.09983   0.06671   0.90517   0.12311  Uiso   1.00
C5266  C     0.09102   0.05333   0.86971   0.12311  Uiso   1.00
C5267  C     0.07622   0.06104   0.86948   0.12311  Uiso   1.00
C5268  C     0.05418   0.03368   0.84631   0.12311  Uiso   1.00
C5269  C     0.06789   0.03221   0.84080   0.12311  Uiso   1.00
N5270  N     0.11109   0.03177   0.84818   0.12311  Uiso   1.00
N5271  N     0.11224   0.05338   0.89186   0.12311  Uiso   1.00
H5272  H     0.09432   0.01889   0.80542   0.12311  Uiso   1.00
H5273  H     0.09770   0.08257   0.93415   0.12311  Uiso   1.00
H5274  H     0.04849   0.01398   0.82671   0.12311  Uiso   1.00
H5275  H     0.07158   0.01152   0.81742   0.12311  Uiso   1.00
H5276  H     0.20862   0.18218   0.86959   0.12311  Uiso   0.00
C5277  C     0.22298   0.15674   0.83448   0.12311  Uiso   1.00
C5278  C     0.22483   0.19171   0.90517   0.12311  Uiso   1.00
C5279  C     0.21602   0.17833   0.86971   0.12311  Uiso   1.00
C5280  C     0.20122   0.18604   0.86948   0.12311  Uiso   1.00
C5281  C     0.17918   0.15868   0.84631   0.12311  Uiso   1.00
C5282  C     0.19289   0.15721   0.84080   0.12311  Uiso   1.00
N5283  N     0.23609   0.15677   0.84818   0.12311  Uiso   1.00
N5284  N     0.23724   0.17838   0.89186   0.12311  Uiso   1.00
H5285  H     0.21932   0.14389   0.80542   0.12311  Uiso   1.00
H5286  H     0.22270   0.20757   0.93415   0.12311  Uiso   1.00
H5287  H     0.17349   0.13898   0.82671   0.12311  Uiso   1.00
H5288  H     0.19658   0.13652   0.81742   0.12311  Uiso   1.00
Fe5289 Fe    0.00000   0.11461   0.81250   0.12311  Uiso   1.00
Fe5290 Fe    0.12500   0.23961   0.81250   0.12311  Uiso   1.00
Fe5291 Fe    0.00000   0.13539   0.93750   0.12311  Uiso   1.00
Fe5292 Fe    0.12500   0.01039   0.93750   0.12311  Uiso   1.00
H5293  H     0.33362   0.19282   0.99459   0.12311  Uiso   0.00
C5294  C     0.34798   0.21826   0.95948   0.12311  Uiso   1.00
C5295  C     0.34983   0.18329   0.78017   0.12311  Uiso   1.00
C5296  C     0.34102   0.19667   0.99471   0.12311  Uiso   1.00
C5297  C     0.32622   0.18896   0.99448   0.12311  Uiso   1.00
C5298  C     0.30418   0.21632   0.97131   0.12311  Uiso   1.00
C5299  C     0.31789   0.21779   0.96580   0.12311  Uiso   1.00
N5300  N     0.36109   0.21823   0.97318   0.12311  Uiso   1.00
N5301  N     0.36224   0.19662   0.76686   0.12311  Uiso   1.00
H5302  H     0.34432   0.23111   0.93042   0.12311  Uiso   1.00
H5303  H     0.34770   0.16743   0.80915   0.12311  Uiso   1.00
H5304  H     0.29849   0.23602   0.95171   0.12311  Uiso   1.00
H5305  H     0.32158   0.23848   0.94242   0.12311  Uiso   1.00
H5306  H     0.45862   0.06782   0.99459   0.12311  Uiso   0.00
C5307  C     0.47298   0.09326   0.95948   0.12311  Uiso   1.00
C5308  C     0.47483   0.05829   0.78017   0.12311  Uiso   1.00
C5309  C     0.46602   0.07167   0.99471   0.12311  Uiso   1.00
C5310  C     0.45122   0.06396   0.99448   0.12311  Uiso   1.00
C5311  C     0.42918   0.09132   0.97131   0.12311  Uiso   1.00
C5312  C     0.44289   0.09279   0.96580   0.12311  Uiso   1.00
N5313  N     0.48609   0.09323   0.97318   0.12311  Uiso   1.00
N5314  N     0.48724   0.07162   0.76686   0.12311  Uiso   1.00
H5315  H     0.46932   0.10611   0.93042   0.12311  Uiso   1.00
H5316  H     0.47270   0.04243   0.80915   0.12311  Uiso   1.00
H5317  H     0.42349   0.11102   0.95171   0.12311  Uiso   1.00
H5318  H     0.44658   0.11348   0.94242   0.12311  Uiso   1.00
H5319  H     0.41638   0.19282   0.88041   0.12311  Uiso   0.00
C5320  C     0.40202   0.21826   0.91552   0.12311  Uiso   1.00
C5321  C     0.40017   0.18329   0.84483   0.12311  Uiso   1.00
C5322  C     0.40898   0.19667   0.88029   0.12311  Uiso   1.00
C5323  C     0.42378   0.18896   0.88052   0.12311  Uiso   1.00
C5324  C     0.44582   0.21632   0.90369   0.12311  Uiso   1.00
C5325  C     0.43211   0.21779   0.90920   0.12311  Uiso   1.00
N5326  N     0.38891   0.21823   0.90182   0.12311  Uiso   1.00
N5327  N     0.38776   0.19662   0.85814   0.12311  Uiso   1.00
H5328  H     0.40568   0.23111   0.94458   0.12311  Uiso   1.00
H5329  H     0.40230   0.16743   0.81585   0.12311  Uiso   1.00
H5330  H     0.45151   0.23602   0.92329   0.12311  Uiso   1.00
H5331  H     0.42842   0.23848   0.93258   0.12311  Uiso   1.00
H5332  H     0.29138   0.06782   0.88041   0.12311  Uiso   0.00
C5333  C     0.27702   0.09326   0.91552   0.12311  Uiso   1.00
C5334  C     0.27517   0.05829   0.84483   0.12311  Uiso   1.00
C5335  C     0.28398   0.07167   0.88029   0.12311  Uiso   1.00
C5336  C     0.29878   0.06396   0.88052   0.12311  Uiso   1.00
C5337  C     0.32082   0.09132   0.90369   0.12311  Uiso   1.00
C5338  C     0.30711   0.09279   0.90920   0.12311  Uiso   1.00
N5339  N     0.26391   0.09323   0.90182   0.12311  Uiso   1.00
N5340  N     0.26276   0.07162   0.85814   0.12311  Uiso   1.00
H5341  H     0.28068   0.10611   0.94458   0.12311  Uiso   1.00
H5342  H     0.27730   0.04243   0.81585   0.12311  Uiso   1.00
H5343  H     0.32651   0.11102   0.92329   0.12311  Uiso   1.00
H5344  H     0.30342   0.11348   0.93258   0.12311  Uiso   1.00
H5345  H     0.41638   0.05718   0.75541   0.12311  Uiso   0.00
C5346  C     0.40202   0.03174   0.79052   0.12311  Uiso   1.00
C5347  C     0.40017   0.06671   0.96983   0.12311  Uiso   1.00
C5348  C     0.40898   0.05333   0.75529   0.12311  Uiso   1.00
C5349  C     0.42378   0.06104   0.75552   0.12311  Uiso   1.00
C5350  C     0.44582   0.03368   0.77869   0.12311  Uiso   1.00
C5351  C     0.43211   0.03221   0.78420   0.12311  Uiso   1.00
N5352  N     0.38891   0.03177   0.77682   0.12311  Uiso   1.00
N5353  N     0.38776   0.05338   0.98314   0.12311  Uiso   1.00
H5354  H     0.40568   0.01889   0.81958   0.12311  Uiso   1.00
H5355  H     0.40230   0.08257   0.94085   0.12311  Uiso   1.00
H5356  H     0.45151   0.01398   0.79829   0.12311  Uiso   1.00
H5357  H     0.42842   0.01152   0.80758   0.12311  Uiso   1.00
H5358  H     0.29138   0.18218   0.75541   0.12311  Uiso   0.00
C5359  C     0.27702   0.15674   0.79052   0.12311  Uiso   1.00
C5360  C     0.27517   0.19171   0.96983   0.12311  Uiso   1.00
C5361  C     0.28398   0.17833   0.75529   0.12311  Uiso   1.00
C5362  C     0.29878   0.18604   0.75552   0.12311  Uiso   1.00
C5363  C     0.32082   0.15868   0.77869   0.12311  Uiso   1.00
C5364  C     0.30711   0.15721   0.78420   0.12311  Uiso   1.00
N5365  N     0.26391   0.15677   0.77682   0.12311  Uiso   1.00
N5366  N     0.26276   0.17838   0.98314   0.12311  Uiso   1.00
H5367  H     0.28068   0.14389   0.81958   0.12311  Uiso   1.00
H5368  H     0.27730   0.20757   0.94085   0.12311  Uiso   1.00
H5369  H     0.32651   0.13898   0.79829   0.12311  Uiso   1.00
H5370  H     0.30342   0.13652   0.80758   0.12311  Uiso   1.00
H5371  H     0.33362   0.05718   0.86959   0.12311  Uiso   0.00
C5372  C     0.34798   0.03174   0.83448   0.12311  Uiso   1.00
C5373  C     0.34983   0.06671   0.90517   0.12311  Uiso   1.00
C5374  C     0.34102   0.05333   0.86971   0.12311  Uiso   1.00
C5375  C     0.32622   0.06104   0.86948   0.12311  Uiso   1.00
C5376  C     0.30418   0.03368   0.84631   0.12311  Uiso   1.00
C5377  C     0.31789   0.03221   0.84080   0.12311  Uiso   1.00
N5378  N     0.36109   0.03177   0.84818   0.12311  Uiso   1.00
N5379  N     0.36224   0.05338   0.89186   0.12311  Uiso   1.00
H5380  H     0.34432   0.01889   0.80542   0.12311  Uiso   1.00
H5381  H     0.34770   0.08257   0.93415   0.12311  Uiso   1.00
H5382  H     0.29849   0.01398   0.82671   0.12311  Uiso   1.00
H5383  H     0.32158   0.01152   0.81742   0.12311  Uiso   1.00
H5384  H     0.45862   0.18218   0.86959   0.12311  Uiso   0.00
C5385  C     0.47298   0.15674   0.83448   0.12311  Uiso   1.00
C5386  C     0.47483   0.19171   0.90517   0.12311  Uiso   1.00
C5387  C     0.46602   0.17833   0.86971   0.12311  Uiso   1.00
C5388  C     0.45122   0.18604   0.86948   0.12311  Uiso   1.00
C5389  C     0.42918   0.15868   0.84631   0.12311  Uiso   1.00
C5390  C     0.44289   0.15721   0.84080   0.12311  Uiso   1.00
N5391  N     0.48609   0.15677   0.84818   0.12311  Uiso   1.00
N5392  N     0.48724   0.17838   0.89186   0.12311  Uiso   1.00
H5393  H     0.46932   0.14389   0.80542   0.12311  Uiso   1.00
H5394  H     0.47270   0.20757   0.93415   0.12311  Uiso   1.00
H5395  H     0.42349   0.13898   0.82671   0.12311  Uiso   1.00
H5396  H     0.44658   0.13652   0.81742   0.12311  Uiso   1.00
Fe5397 Fe    0.25000   0.11461   0.81250   0.12311  Uiso   1.00
Fe5398 Fe    0.37500   0.23961   0.81250   0.12311  Uiso   1.00
Fe5399 Fe    0.25000   0.13539   0.93750   0.12311  Uiso   1.00
Fe5400 Fe    0.37500   0.01039   0.93750   0.12311  Uiso   1.00
H5401  H     0.58362   0.19282   0.99459   0.12311  Uiso   0.00
C5402  C     0.59798   0.21826   0.95948   0.12311  Uiso   1.00
C5403  C     0.59983   0.18329   0.78017   0.12311  Uiso   1.00
C5404  C     0.59102   0.19667   0.99471   0.12311  Uiso   1.00
C5405  C     0.57622   0.18896   0.99448   0.12311  Uiso   1.00
C5406  C     0.55418   0.21632   0.97131   0.12311  Uiso   1.00
C5407  C     0.56789   0.21779   0.96580   0.12311  Uiso   1.00
N5408  N     0.61109   0.21823   0.97318   0.12311  Uiso   1.00
N5409  N     0.61224   0.19662   0.76686   0.12311  Uiso   1.00
H5410  H     0.59432   0.23111   0.93042   0.12311  Uiso   1.00
H5411  H     0.59770   0.16743   0.80915   0.12311  Uiso   1.00
H5412  H     0.54849   0.23602   0.95171   0.12311  Uiso   1.00
H5413  H     0.57158   0.23848   0.94242   0.12311  Uiso   1.00
H5414  H     0.70862   0.06782   0.99459   0.12311  Uiso   0.00
C5415  C     0.72298   0.09326   0.95948   0.12311  Uiso   1.00
C5416  C     0.72483   0.05829   0.78017   0.12311  Uiso   1.00
C5417  C     0.71602   0.07167   0.99471   0.12311  Uiso   1.00
C5418  C     0.70122   0.06396   0.99448   0.12311  Uiso   1.00
C5419  C     0.67918   0.09132   0.97131   0.12311  Uiso   1.00
C5420  C     0.69289   0.09279   0.96580   0.12311  Uiso   1.00
N5421  N     0.73609   0.09323   0.97318   0.12311  Uiso   1.00
N5422  N     0.73724   0.07162   0.76686   0.12311  Uiso   1.00
H5423  H     0.71932   0.10611   0.93042   0.12311  Uiso   1.00
H5424  H     0.72270   0.04243   0.80915   0.12311  Uiso   1.00
H5425  H     0.67349   0.11102   0.95171   0.12311  Uiso   1.00
H5426  H     0.69658   0.11348   0.94242   0.12311  Uiso   1.00
H5427  H     0.66638   0.19282   0.88041   0.12311  Uiso   0.00
C5428  C     0.65202   0.21826   0.91552   0.12311  Uiso   1.00
C5429  C     0.65017   0.18329   0.84483   0.12311  Uiso   1.00
C5430  C     0.65898   0.19667   0.88029   0.12311  Uiso   1.00
C5431  C     0.67378   0.18896   0.88052   0.12311  Uiso   1.00
C5432  C     0.69582   0.21632   0.90369   0.12311  Uiso   1.00
C5433  C     0.68211   0.21779   0.90920   0.12311  Uiso   1.00
N5434  N     0.63891   0.21823   0.90182   0.12311  Uiso   1.00
N5435  N     0.63776   0.19662   0.85814   0.12311  Uiso   1.00
H5436  H     0.65568   0.23111   0.94458   0.12311  Uiso   1.00
H5437  H     0.65230   0.16743   0.81585   0.12311  Uiso   1.00
H5438  H     0.70151   0.23602   0.92329   0.12311  Uiso   1.00
H5439  H     0.67842   0.23848   0.93258   0.12311  Uiso   1.00
H5440  H     0.54138   0.06782   0.88041   0.12311  Uiso   0.00
C5441  C     0.52702   0.09326   0.91552   0.12311  Uiso   1.00
C5442  C     0.52517   0.05829   0.84483   0.12311  Uiso   1.00
C5443  C     0.53398   0.07167   0.88029   0.12311  Uiso   1.00
C5444  C     0.54878   0.06396   0.88052   0.12311  Uiso   1.00
C5445  C     0.57082   0.09132   0.90369   0.12311  Uiso   1.00
C5446  C     0.55711   0.09279   0.90920   0.12311  Uiso   1.00
N5447  N     0.51391   0.09323   0.90182   0.12311  Uiso   1.00
N5448  N     0.51276   0.07162   0.85814   0.12311  Uiso   1.00
H5449  H     0.53068   0.10611   0.94458   0.12311  Uiso   1.00
H5450  H     0.52730   0.04243   0.81585   0.12311  Uiso   1.00
H5451  H     0.57651   0.11102   0.92329   0.12311  Uiso   1.00
H5452  H     0.55342   0.11348   0.93258   0.12311  Uiso   1.00
H5453  H     0.66638   0.05718   0.75541   0.12311  Uiso   0.00
C5454  C     0.65202   0.03174   0.79052   0.12311  Uiso   1.00
C5455  C     0.65017   0.06671   0.96983   0.12311  Uiso   1.00
C5456  C     0.65898   0.05333   0.75529   0.12311  Uiso   1.00
C5457  C     0.67378   0.06104   0.75552   0.12311  Uiso   1.00
C5458  C     0.69582   0.03368   0.77869   0.12311  Uiso   1.00
C5459  C     0.68211   0.03221   0.78420   0.12311  Uiso   1.00
N5460  N     0.63891   0.03177   0.77682   0.12311  Uiso   1.00
N5461  N     0.63776   0.05338   0.98314   0.12311  Uiso   1.00
H5462  H     0.65568   0.01889   0.81958   0.12311  Uiso   1.00
H5463  H     0.65230   0.08257   0.94085   0.12311  Uiso   1.00
H5464  H     0.70151   0.01398   0.79829   0.12311  Uiso   1.00
H5465  H     0.67842   0.01152   0.80758   0.12311  Uiso   1.00
H5466  H     0.54138   0.18218   0.75541   0.12311  Uiso   0.00
C5467  C     0.52702   0.15674   0.79052   0.12311  Uiso   1.00
C5468  C     0.52517   0.19171   0.96983   0.12311  Uiso   1.00
C5469  C     0.53398   0.17833   0.75529   0.12311  Uiso   1.00
C5470  C     0.54878   0.18604   0.75552   0.12311  Uiso   1.00
C5471  C     0.57082   0.15868   0.77869   0.12311  Uiso   1.00
C5472  C     0.55711   0.15721   0.78420   0.12311  Uiso   1.00
N5473  N     0.51391   0.15677   0.77682   0.12311  Uiso   1.00
N5474  N     0.51276   0.17838   0.98314   0.12311  Uiso   1.00
H5475  H     0.53068   0.14389   0.81958   0.12311  Uiso   1.00
H5476  H     0.52730   0.20757   0.94085   0.12311  Uiso   1.00
H5477  H     0.57651   0.13898   0.79829   0.12311  Uiso   1.00
H5478  H     0.55342   0.13652   0.80758   0.12311  Uiso   1.00
H5479  H     0.58362   0.05718   0.86959   0.12311  Uiso   0.00
C5480  C     0.59798   0.03174   0.83448   0.12311  Uiso   1.00
C5481  C     0.59983   0.06671   0.90517   0.12311  Uiso   1.00
C5482  C     0.59102   0.05333   0.86971   0.12311  Uiso   1.00
C5483  C     0.57622   0.06104   0.86948   0.12311  Uiso   1.00
C5484  C     0.55418   0.03368   0.84631   0.12311  Uiso   1.00
C5485  C     0.56789   0.03221   0.84080   0.12311  Uiso   1.00
N5486  N     0.61109   0.03177   0.84818   0.12311  Uiso   1.00
N5487  N     0.61224   0.05338   0.89186   0.12311  Uiso   1.00
H5488  H     0.59432   0.01889   0.80542   0.12311  Uiso   1.00
H5489  H     0.59770   0.08257   0.93415   0.12311  Uiso   1.00
H5490  H     0.54849   0.01398   0.82671   0.12311  Uiso   1.00
H5491  H     0.57158   0.01152   0.81742   0.12311  Uiso   1.00
H5492  H     0.70862   0.18218   0.86959   0.12311  Uiso   0.00
C5493  C     0.72298   0.15674   0.83448   0.12311  Uiso   1.00
C5494  C     0.72483   0.19171   0.90517   0.12311  Uiso   1.00
C5495  C     0.71602   0.17833   0.86971   0.12311  Uiso   1.00
C5496  C     0.70122   0.18604   0.86948   0.12311  Uiso   1.00
C5497  C     0.67918   0.15868   0.84631   0.12311  Uiso   1.00
C5498  C     0.69289   0.15721   0.84080   0.12311  Uiso   1.00
N5499  N     0.73609   0.15677   0.84818   0.12311  Uiso   1.00
N5500  N     0.73724   0.17838   0.89186   0.12311  Uiso   1.00
H5501  H     0.71932   0.14389   0.80542   0.12311  Uiso   1.00
H5502  H     0.72270   0.20757   0.93415   0.12311  Uiso   1.00
H5503  H     0.67349   0.13898   0.82671   0.12311  Uiso   1.00
H5504  H     0.69658   0.13652   0.81742   0.12311  Uiso   1.00
Fe5505 Fe    0.50000   0.11461   0.81250   0.12311  Uiso   1.00
Fe5506 Fe    0.62500   0.23961   0.81250   0.12311  Uiso   1.00
Fe5507 Fe    0.50000   0.13539   0.93750   0.12311  Uiso   1.00
Fe5508 Fe    0.62500   0.01039   0.93750   0.12311  Uiso   1.00
H5509  H     0.83362   0.19282   0.99459   0.12311  Uiso   0.00
C5510  C     0.84798   0.21826   0.95948   0.12311  Uiso   1.00
C5511  C     0.84983   0.18329   0.78017   0.12311  Uiso   1.00
C5512  C     0.84102   0.19667   0.99471   0.12311  Uiso   1.00
C5513  C     0.82622   0.18896   0.99448   0.12311  Uiso   1.00
C5514  C     0.80418   0.21632   0.97131   0.12311  Uiso   1.00
C5515  C     0.81789   0.21779   0.96580   0.12311  Uiso   1.00
N5516  N     0.86109   0.21823   0.97318   0.12311  Uiso   1.00
N5517  N     0.86224   0.19662   0.76686   0.12311  Uiso   1.00
H5518  H     0.84432   0.23111   0.93042   0.12311  Uiso   1.00
H5519  H     0.84770   0.16743   0.80915   0.12311  Uiso   1.00
H5520  H     0.79849   0.23602   0.95171   0.12311  Uiso   1.00
H5521  H     0.82158   0.23848   0.94242   0.12311  Uiso   1.00
H5522  H     0.95862   0.06782   0.99459   0.12311  Uiso   0.00
C5523  C     0.97298   0.09326   0.95948   0.12311  Uiso   1.00
C5524  C     0.97483   0.05829   0.78017   0.12311  Uiso   1.00
C5525  C     0.96602   0.07167   0.99471   0.12311  Uiso   1.00
C5526  C     0.95122   0.06396   0.99448   0.12311  Uiso   1.00
C5527  C     0.92918   0.09132   0.97131   0.12311  Uiso   1.00
C5528  C     0.94289   0.09279   0.96580   0.12311  Uiso   1.00
N5529  N     0.98609   0.09323   0.97318   0.12311  Uiso   1.00
N5530  N     0.98724   0.07162   0.76686   0.12311  Uiso   1.00
H5531  H     0.96932   0.10611   0.93042   0.12311  Uiso   1.00
H5532  H     0.97270   0.04243   0.80915   0.12311  Uiso   1.00
H5533  H     0.92349   0.11102   0.95171   0.12311  Uiso   1.00
H5534  H     0.94658   0.11348   0.94242   0.12311  Uiso   1.00
H5535  H     0.91638   0.19282   0.88041   0.12311  Uiso   0.00
C5536  C     0.90202   0.21826   0.91552   0.12311  Uiso   1.00
C5537  C     0.90017   0.18329   0.84483   0.12311  Uiso   1.00
C5538  C     0.90898   0.19667   0.88029   0.12311  Uiso   1.00
C5539  C     0.92378   0.18896   0.88052   0.12311  Uiso   1.00
C5540  C     0.94582   0.21632   0.90369   0.12311  Uiso   1.00
C5541  C     0.93211   0.21779   0.90920   0.12311  Uiso   1.00
N5542  N     0.88891   0.21823   0.90182   0.12311  Uiso   1.00
N5543  N     0.88776   0.19662   0.85814   0.12311  Uiso   1.00
H5544  H     0.90568   0.23111   0.94458   0.12311  Uiso   1.00
H5545  H     0.90230   0.16743   0.81585   0.12311  Uiso   1.00
H5546  H     0.95151   0.23602   0.92329   0.12311  Uiso   1.00
H5547  H     0.92842   0.23848   0.93258   0.12311  Uiso   1.00
H5548  H     0.79138   0.06782   0.88041   0.12311  Uiso   0.00
C5549  C     0.77702   0.09326   0.91552   0.12311  Uiso   1.00
C5550  C     0.77517   0.05829   0.84483   0.12311  Uiso   1.00
C5551  C     0.78398   0.07167   0.88029   0.12311  Uiso   1.00
C5552  C     0.79878   0.06396   0.88052   0.12311  Uiso   1.00
C5553  C     0.82082   0.09132   0.90369   0.12311  Uiso   1.00
C5554  C     0.80711   0.09279   0.90920   0.12311  Uiso   1.00
N5555  N     0.76391   0.09323   0.90182   0.12311  Uiso   1.00
N5556  N     0.76276   0.07162   0.85814   0.12311  Uiso   1.00
H5557  H     0.78068   0.10611   0.94458   0.12311  Uiso   1.00
H5558  H     0.77730   0.04243   0.81585   0.12311  Uiso   1.00
H5559  H     0.82651   0.11102   0.92329   0.12311  Uiso   1.00
H5560  H     0.80342   0.11348   0.93258   0.12311  Uiso   1.00
H5561  H     0.91638   0.05718   0.75541   0.12311  Uiso   0.00
C5562  C     0.90202   0.03174   0.79052   0.12311  Uiso   1.00
C5563  C     0.90017   0.06671   0.96983   0.12311  Uiso   1.00
C5564  C     0.90898   0.05333   0.75529   0.12311  Uiso   1.00
C5565  C     0.92378   0.06104   0.75552   0.12311  Uiso   1.00
C5566  C     0.94582   0.03368   0.77869   0.12311  Uiso   1.00
C5567  C     0.93211   0.03221   0.78420   0.12311  Uiso   1.00
N5568  N     0.88891   0.03177   0.77682   0.12311  Uiso   1.00
N5569  N     0.88776   0.05338   0.98314   0.12311  Uiso   1.00
H5570  H     0.90568   0.01889   0.81958   0.12311  Uiso   1.00
H5571  H     0.90230   0.08257   0.94085   0.12311  Uiso   1.00
H5572  H     0.95151   0.01398   0.79829   0.12311  Uiso   1.00
H5573  H     0.92842   0.01152   0.80758   0.12311  Uiso   1.00
H5574  H     0.79138   0.18218   0.75541   0.12311  Uiso   0.00
C5575  C     0.77702   0.15674   0.79052   0.12311  Uiso   1.00
C5576  C     0.77517   0.19171   0.96983   0.12311  Uiso   1.00
C5577  C     0.78398   0.17833   0.75529   0.12311  Uiso   1.00
C5578  C     0.79878   0.18604   0.75552   0.12311  Uiso   1.00
C5579  C     0.82082   0.15868   0.77869   0.12311  Uiso   1.00
C5580  C     0.80711   0.15721   0.78420   0.12311  Uiso   1.00
N5581  N     0.76391   0.15677   0.77682   0.12311  Uiso   1.00
N5582  N     0.76276   0.17838   0.98314   0.12311  Uiso   1.00
H5583  H     0.78068   0.14389   0.81958   0.12311  Uiso   1.00
H5584  H     0.77730   0.20757   0.94085   0.12311  Uiso   1.00
H5585  H     0.82651   0.13898   0.79829   0.12311  Uiso   1.00
H5586  H     0.80342   0.13652   0.80758   0.12311  Uiso   1.00
H5587  H     0.83362   0.05718   0.86959   0.12311  Uiso   0.00
C5588  C     0.84798   0.03174   0.83448   0.12311  Uiso   1.00
C5589  C     0.84983   0.06671   0.90517   0.12311  Uiso   1.00
C5590  C     0.84102   0.05333   0.86971   0.12311  Uiso   1.00
C5591  C     0.82622   0.06104   0.86948   0.12311  Uiso   1.00
C5592  C     0.80418   0.03368   0.84631   0.12311  Uiso   1.00
C5593  C     0.81789   0.03221   0.84080   0.12311  Uiso   1.00
N5594  N     0.86109   0.03177   0.84818   0.12311  Uiso   1.00
N5595  N     0.86224   0.05338   0.89186   0.12311  Uiso   1.00
H5596  H     0.84432   0.01889   0.80542   0.12311  Uiso   1.00
H5597  H     0.84770   0.08257   0.93415   0.12311  Uiso   1.00
H5598  H     0.79849   0.01398   0.82671   0.12311  Uiso   1.00
H5599  H     0.82158   0.01152   0.81742   0.12311  Uiso   1.00
H5600  H     0.95862   0.18218   0.86959   0.12311  Uiso   0.00
C5601  C     0.97298   0.15674   0.83448   0.12311  Uiso   1.00
C5602  C     0.97483   0.19171   0.90517   0.12311  Uiso   1.00
C5603  C     0.96602   0.17833   0.86971   0.12311  Uiso   1.00
C5604  C     0.95122   0.18604   0.86948   0.12311  Uiso   1.00
C5605  C     0.92918   0.15868   0.84631   0.12311  Uiso   1.00
C5606  C     0.94289   0.15721   0.84080   0.12311  Uiso   1.00
N5607  N     0.98609   0.15677   0.84818   0.12311  Uiso   1.00
N5608  N     0.98724   0.17838   0.89186   0.12311  Uiso   1.00
H5609  H     0.96932   0.14389   0.80542   0.12311  Uiso   1.00
H5610  H     0.97270   0.20757   0.93415   0.12311  Uiso   1.00
H5611  H     0.92349   0.13898   0.82671   0.12311  Uiso   1.00
H5612  H     0.94658   0.13652   0.81742   0.12311  Uiso   1.00
Fe5613 Fe    0.75000   0.11461   0.81250   0.12311  Uiso   1.00
Fe5614 Fe    0.87500   0.23961   0.81250   0.12311  Uiso   1.00
Fe5615 Fe    0.75000   0.13539   0.93750   0.12311  Uiso   1.00
Fe5616 Fe    0.87500   0.01039   0.93750   0.12311  Uiso   1.00
H5617  H     0.08362   0.44282   0.99459   0.12311  Uiso   0.00
C5618  C     0.09798   0.46826   0.95948   0.12311  Uiso   1.00
C5619  C     0.09983   0.43329   0.78017   0.12311  Uiso   1.00
C5620  C     0.09102   0.44667   0.99471   0.12311  Uiso   1.00
C5621  C     0.07622   0.43896   0.99448   0.12311  Uiso   1.00
C5622  C     0.05418   0.46632   0.97131   0.12311  Uiso   1.00
C5623  C     0.06789   0.46779   0.96580   0.12311  Uiso   1.00
N5624  N     0.11109   0.46823   0.97318   0.12311  Uiso   1.00
N5625  N     0.11224   0.44662   0.76686   0.12311  Uiso   1.00
H5626  H     0.09432   0.48111   0.93042   0.12311  Uiso   1.00
H5627  H     0.09770   0.41743   0.80915   0.12311  Uiso   1.00
H5628  H     0.04849   0.48602   0.95171   0.12311  Uiso   1.00
H5629  H     0.07158   0.48848   0.94242   0.12311  Uiso   1.00
H5630  H     0.20862   0.31782   0.99459   0.12311  Uiso   0.00
C5631  C     0.22298   0.34326   0.95948   0.12311  Uiso   1.00
C5632  C     0.22483   0.30829   0.78017   0.12311  Uiso   1.00
C5633  C     0.21602   0.32167   0.99471   0.12311  Uiso   1.00
C5634  C     0.20122   0.31396   0.99448   0.12311  Uiso   1.00
C5635  C     0.17918   0.34132   0.97131   0.12311  Uiso   1.00
C5636  C     0.19289   0.34279   0.96580   0.12311  Uiso   1.00
N5637  N     0.23609   0.34323   0.97318   0.12311  Uiso   1.00
N5638  N     0.23724   0.32162   0.76686   0.12311  Uiso   1.00
H5639  H     0.21932   0.35611   0.93042   0.12311  Uiso   1.00
H5640  H     0.22270   0.29243   0.80915   0.12311  Uiso   1.00
H5641  H     0.17349   0.36102   0.95171   0.12311  Uiso   1.00
H5642  H     0.19658   0.36348   0.94242   0.12311  Uiso   1.00
H5643  H     0.16638   0.44282   0.88041   0.12311  Uiso   0.00
C5644  C     0.15202   0.46826   0.91552   0.12311  Uiso   1.00
C5645  C     0.15017   0.43329   0.84483   0.12311  Uiso   1.00
C5646  C     0.15898   0.44667   0.88029   0.12311  Uiso   1.00
C5647  C     0.17378   0.43896   0.88052   0.12311  Uiso   1.00
C5648  C     0.19582   0.46632   0.90369   0.12311  Uiso   1.00
C5649  C     0.18211   0.46779   0.90920   0.12311  Uiso   1.00
N5650  N     0.13891   0.46823   0.90182   0.12311  Uiso   1.00
N5651  N     0.13776   0.44662   0.85814   0.12311  Uiso   1.00
H5652  H     0.15568   0.48111   0.94458   0.12311  Uiso   1.00
H5653  H     0.15230   0.41743   0.81585   0.12311  Uiso   1.00
H5654  H     0.20151   0.48602   0.92329   0.12311  Uiso   1.00
H5655  H     0.17842   0.48848   0.93258   0.12311  Uiso   1.00
H5656  H     0.04138   0.31782   0.88041   0.12311  Uiso   0.00
C5657  C     0.02702   0.34326   0.91552   0.12311  Uiso   1.00
C5658  C     0.02517   0.30829   0.84483   0.12311  Uiso   1.00
C5659  C     0.03398   0.32167   0.88029   0.12311  Uiso   1.00
C5660  C     0.04878   0.31396   0.88052   0.12311  Uiso   1.00
C5661  C     0.07082   0.34132   0.90369   0.12311  Uiso   1.00
C5662  C     0.05711   0.34279   0.90920   0.12311  Uiso   1.00
N5663  N     0.01391   0.34323   0.90182   0.12311  Uiso   1.00
N5664  N     0.01276   0.32162   0.85814   0.12311  Uiso   1.00
H5665  H     0.03068   0.35611   0.94458   0.12311  Uiso   1.00
H5666  H     0.02730   0.29243   0.81585   0.12311  Uiso   1.00
H5667  H     0.07651   0.36102   0.92329   0.12311  Uiso   1.00
H5668  H     0.05342   0.36348   0.93258   0.12311  Uiso   1.00
H5669  H     0.16638   0.30718   0.75541   0.12311  Uiso   0.00
C5670  C     0.15202   0.28174   0.79052   0.12311  Uiso   1.00
C5671  C     0.15017   0.31671   0.96983   0.12311  Uiso   1.00
C5672  C     0.15898   0.30333   0.75529   0.12311  Uiso   1.00
C5673  C     0.17378   0.31104   0.75552   0.12311  Uiso   1.00
C5674  C     0.19582   0.28368   0.77869   0.12311  Uiso   1.00
C5675  C     0.18211   0.28221   0.78420   0.12311  Uiso   1.00
N5676  N     0.13891   0.28177   0.77682   0.12311  Uiso   1.00
N5677  N     0.13776   0.30338   0.98314   0.12311  Uiso   1.00
H5678  H     0.15568   0.26889   0.81958   0.12311  Uiso   1.00
H5679  H     0.15230   0.33257   0.94085   0.12311  Uiso   1.00
H5680  H     0.20151   0.26398   0.79829   0.12311  Uiso   1.00
H5681  H     0.17842   0.26152   0.80758   0.12311  Uiso   1.00
H5682  H     0.04138   0.43218   0.75541   0.12311  Uiso   0.00
C5683  C     0.02702   0.40674   0.79052   0.12311  Uiso   1.00
C5684  C     0.02517   0.44171   0.96983   0.12311  Uiso   1.00
C5685  C     0.03398   0.42833   0.75529   0.12311  Uiso   1.00
C5686  C     0.04878   0.43604   0.75552   0.12311  Uiso   1.00
C5687  C     0.07082   0.40868   0.77869   0.12311  Uiso   1.00
C5688  C     0.05711   0.40721   0.78420   0.12311  Uiso   1.00
N5689  N     0.01391   0.40677   0.77682   0.12311  Uiso   1.00
N5690  N     0.01276   0.42838   0.98314   0.12311  Uiso   1.00
H5691  H     0.03068   0.39389   0.81958   0.12311  Uiso   1.00
H5692  H     0.02730   0.45757   0.94085   0.12311  Uiso   1.00
H5693  H     0.07651   0.38898   0.79829   0.12311  Uiso   1.00
H5694  H     0.05342   0.38652   0.80758   0.12311  Uiso   1.00
H5695  H     0.08362   0.30718   0.86959   0.12311  Uiso   0.00
C5696  C     0.09798   0.28174   0.83448   0.12311  Uiso   1.00
C5697  C     0.09983   0.31671   0.90517   0.12311  Uiso   1.00
C5698  C     0.09102   0.30333   0.86971   0.12311  Uiso   1.00
C5699  C     0.07622   0.31104   0.86948   0.12311  Uiso   1.00
C5700  C     0.05418   0.28368   0.84631   0.12311  Uiso   1.00
C5701  C     0.06789   0.28221   0.84080   0.12311  Uiso   1.00
N5702  N     0.11109   0.28177   0.84818   0.12311  Uiso   1.00
N5703  N     0.11224   0.30338   0.89186   0.12311  Uiso   1.00
H5704  H     0.09432   0.26889   0.80542   0.12311  Uiso   1.00
H5705  H     0.09770   0.33257   0.93415   0.12311  Uiso   1.00
H5706  H     0.04849   0.26398   0.82671   0.12311  Uiso   1.00
H5707  H     0.07158   0.26152   0.81742   0.12311  Uiso   1.00
H5708  H     0.20862   0.43218   0.86959   0.12311  Uiso   0.00
C5709  C     0.22298   0.40674   0.83448   0.12311  Uiso   1.00
C5710  C     0.22483   0.44171   0.90517   0.12311  Uiso   1.00
C5711  C     0.21602   0.42833   0.86971   0.12311  Uiso   1.00
C5712  C     0.20122   0.43604   0.86948   0.12311  Uiso   1.00
C5713  C     0.17918   0.40868   0.84631   0.12311  Uiso   1.00
C5714  C     0.19289   0.40721   0.84080   0.12311  Uiso   1.00
N5715  N     0.23609   0.40677   0.84818   0.12311  Uiso   1.00
N5716  N     0.23724   0.42838   0.89186   0.12311  Uiso   1.00
H5717  H     0.21932   0.39389   0.80542   0.12311  Uiso   1.00
H5718  H     0.22270   0.45757   0.93415   0.12311  Uiso   1.00
H5719  H     0.17349   0.38898   0.82671   0.12311  Uiso   1.00
H5720  H     0.19658   0.38652   0.81742   0.12311  Uiso   1.00
Fe5721 Fe    0.00000   0.36461   0.81250   0.12311  Uiso   1.00
Fe5722 Fe    0.12500   0.48961   0.81250   0.12311  Uiso   1.00
Fe5723 Fe    0.00000   0.38539   0.93750   0.12311  Uiso   1.00
Fe5724 Fe    0.12500   0.26039   0.93750   0.12311  Uiso   1.00
H5725  H     0.33362   0.44282   0.99459   0.12311  Uiso   0.00
C5726  C     0.34798   0.46826   0.95948   0.12311  Uiso   1.00
C5727  C     0.34983   0.43329   0.78017   0.12311  Uiso   1.00
C5728  C     0.34102   0.44667   0.99471   0.12311  Uiso   1.00
C5729  C     0.32622   0.43896   0.99448   0.12311  Uiso   1.00
C5730  C     0.30418   0.46632   0.97131   0.12311  Uiso   1.00
C5731  C     0.31789   0.46779   0.96580   0.12311  Uiso   1.00
N5732  N     0.36109   0.46823   0.97318   0.12311  Uiso   1.00
N5733  N     0.36224   0.44662   0.76686   0.12311  Uiso   1.00
H5734  H     0.34432   0.48111   0.93042   0.12311  Uiso   1.00
H5735  H     0.34770   0.41743   0.80915   0.12311  Uiso   1.00
H5736  H     0.29849   0.48602   0.95171   0.12311  Uiso   1.00
H5737  H     0.32158   0.48848   0.94242   0.12311  Uiso   1.00
H5738  H     0.45862   0.31782   0.99459   0.12311  Uiso   0.00
C5739  C     0.47298   0.34326   0.95948   0.12311  Uiso   1.00
C5740  C     0.47483   0.30829   0.78017   0.12311  Uiso   1.00
C5741  C     0.46602   0.32167   0.99471   0.12311  Uiso   1.00
C5742  C     0.45122   0.31396   0.99448   0.12311  Uiso   1.00
C5743  C     0.42918   0.34132   0.97131   0.12311  Uiso   1.00
C5744  C     0.44289   0.34279   0.96580   0.12311  Uiso   1.00
N5745  N     0.48609   0.34323   0.97318   0.12311  Uiso   1.00
N5746  N     0.48724   0.32162   0.76686   0.12311  Uiso   1.00
H5747  H     0.46932   0.35611   0.93042   0.12311  Uiso   1.00
H5748  H     0.47270   0.29243   0.80915   0.12311  Uiso   1.00
H5749  H     0.42349   0.36102   0.95171   0.12311  Uiso   1.00
H5750  H     0.44658   0.36348   0.94242   0.12311  Uiso   1.00
H5751  H     0.41638   0.44282   0.88041   0.12311  Uiso   0.00
C5752  C     0.40202   0.46826   0.91552   0.12311  Uiso   1.00
C5753  C     0.40017   0.43329   0.84483   0.12311  Uiso   1.00
C5754  C     0.40898   0.44667   0.88029   0.12311  Uiso   1.00
C5755  C     0.42378   0.43896   0.88052   0.12311  Uiso   1.00
C5756  C     0.44582   0.46632   0.90369   0.12311  Uiso   1.00
C5757  C     0.43211   0.46779   0.90920   0.12311  Uiso   1.00
N5758  N     0.38891   0.46823   0.90182   0.12311  Uiso   1.00
N5759  N     0.38776   0.44662   0.85814   0.12311  Uiso   1.00
H5760  H     0.40568   0.48111   0.94458   0.12311  Uiso   1.00
H5761  H     0.40230   0.41743   0.81585   0.12311  Uiso   1.00
H5762  H     0.45151   0.48602   0.92329   0.12311  Uiso   1.00
H5763  H     0.42842   0.48848   0.93258   0.12311  Uiso   1.00
H5764  H     0.29138   0.31782   0.88041   0.12311  Uiso   0.00
C5765  C     0.27702   0.34326   0.91552   0.12311  Uiso   1.00
C5766  C     0.27517   0.30829   0.84483   0.12311  Uiso   1.00
C5767  C     0.28398   0.32167   0.88029   0.12311  Uiso   1.00
C5768  C     0.29878   0.31396   0.88052   0.12311  Uiso   1.00
C5769  C     0.32082   0.34132   0.90369   0.12311  Uiso   1.00
C5770  C     0.30711   0.34279   0.90920   0.12311  Uiso   1.00
N5771  N     0.26391   0.34323   0.90182   0.12311  Uiso   1.00
N5772  N     0.26276   0.32162   0.85814   0.12311  Uiso   1.00
H5773  H     0.28068   0.35611   0.94458   0.12311  Uiso   1.00
H5774  H     0.27730   0.29243   0.81585   0.12311  Uiso   1.00
H5775  H     0.32651   0.36102   0.92329   0.12311  Uiso   1.00
H5776  H     0.30342   0.36348   0.93258   0.12311  Uiso   1.00
H5777  H     0.41638   0.30718   0.75541   0.12311  Uiso   0.00
C5778  C     0.40202   0.28174   0.79052   0.12311  Uiso   1.00
C5779  C     0.40017   0.31671   0.96983   0.12311  Uiso   1.00
C5780  C     0.40898   0.30333   0.75529   0.12311  Uiso   1.00
C5781  C     0.42378   0.31104   0.75552   0.12311  Uiso   1.00
C5782  C     0.44582   0.28368   0.77869   0.12311  Uiso   1.00
C5783  C     0.43211   0.28221   0.78420   0.12311  Uiso   1.00
N5784  N     0.38891   0.28177   0.77682   0.12311  Uiso   1.00
N5785  N     0.38776   0.30338   0.98314   0.12311  Uiso   1.00
H5786  H     0.40568   0.26889   0.81958   0.12311  Uiso   1.00
H5787  H     0.40230   0.33257   0.94085   0.12311  Uiso   1.00
H5788  H     0.45151   0.26398   0.79829   0.12311  Uiso   1.00
H5789  H     0.42842   0.26152   0.80758   0.12311  Uiso   1.00
H5790  H     0.29138   0.43218   0.75541   0.12311  Uiso   0.00
C5791  C     0.27702   0.40674   0.79052   0.12311  Uiso   1.00
C5792  C     0.27517   0.44171   0.96983   0.12311  Uiso   1.00
C5793  C     0.28398   0.42833   0.75529   0.12311  Uiso   1.00
C5794  C     0.29878   0.43604   0.75552   0.12311  Uiso   1.00
C5795  C     0.32082   0.40868   0.77869   0.12311  Uiso   1.00
C5796  C     0.30711   0.40721   0.78420   0.12311  Uiso   1.00
N5797  N     0.26391   0.40677   0.77682   0.12311  Uiso   1.00
N5798  N     0.26276   0.42838   0.98314   0.12311  Uiso   1.00
H5799  H     0.28068   0.39389   0.81958   0.12311  Uiso   1.00
H5800  H     0.27730   0.45757   0.94085   0.12311  Uiso   1.00
H5801  H     0.32651   0.38898   0.79829   0.12311  Uiso   1.00
H5802  H     0.30342   0.38652   0.80758   0.12311  Uiso   1.00
H5803  H     0.33362   0.30718   0.86959   0.12311  Uiso   0.00
C5804  C     0.34798   0.28174   0.83448   0.12311  Uiso   1.00
C5805  C     0.34983   0.31671   0.90517   0.12311  Uiso   1.00
C5806  C     0.34102   0.30333   0.86971   0.12311  Uiso   1.00
C5807  C     0.32622   0.31104   0.86948   0.12311  Uiso   1.00
C5808  C     0.30418   0.28368   0.84631   0.12311  Uiso   1.00
C5809  C     0.31789   0.28221   0.84080   0.12311  Uiso   1.00
N5810  N     0.36109   0.28177   0.84818   0.12311  Uiso   1.00
N5811  N     0.36224   0.30338   0.89186   0.12311  Uiso   1.00
H5812  H     0.34432   0.26889   0.80542   0.12311  Uiso   1.00
H5813  H     0.34770   0.33257   0.93415   0.12311  Uiso   1.00
H5814  H     0.29849   0.26398   0.82671   0.12311  Uiso   1.00
H5815  H     0.32158   0.26152   0.81742   0.12311  Uiso   1.00
H5816  H     0.45862   0.43218   0.86959   0.12311  Uiso   0.00
C5817  C     0.47298   0.40674   0.83448   0.12311  Uiso   1.00
C5818  C     0.47483   0.44171   0.90517   0.12311  Uiso   1.00
C5819  C     0.46602   0.42833   0.86971   0.12311  Uiso   1.00
C5820  C     0.45122   0.43604   0.86948   0.12311  Uiso   1.00
C5821  C     0.42918   0.40868   0.84631   0.12311  Uiso   1.00
C5822  C     0.44289   0.40721   0.84080   0.12311  Uiso   1.00
N5823  N     0.48609   0.40677   0.84818   0.12311  Uiso   1.00
N5824  N     0.48724   0.42838   0.89186   0.12311  Uiso   1.00
H5825  H     0.46932   0.39389   0.80542   0.12311  Uiso   1.00
H5826  H     0.47270   0.45757   0.93415   0.12311  Uiso   1.00
H5827  H     0.42349   0.38898   0.82671   0.12311  Uiso   1.00
H5828  H     0.44658   0.38652   0.81742   0.12311  Uiso   1.00
Fe5829 Fe    0.25000   0.36461   0.81250   0.12311  Uiso   1.00
Fe5830 Fe    0.37500   0.48961   0.81250   0.12311  Uiso   1.00
Fe5831 Fe    0.25000   0.38539   0.93750   0.12311  Uiso   1.00
Fe5832 Fe    0.37500   0.26039   0.93750   0.12311  Uiso   1.00
H5833  H     0.58362   0.44282   0.99459   0.12311  Uiso   0.00
C5834  C     0.59798   0.46826   0.95948   0.12311  Uiso   1.00
C5835  C     0.59983   0.43329   0.78017   0.12311  Uiso   1.00
C5836  C     0.59102   0.44667   0.99471   0.12311  Uiso   1.00
C5837  C     0.57622   0.43896   0.99448   0.12311  Uiso   1.00
C5838  C     0.55418   0.46632   0.97131   0.12311  Uiso   1.00
C5839  C     0.56789   0.46779   0.96580   0.12311  Uiso   1.00
N5840  N     0.61109   0.46823   0.97318   0.12311  Uiso   1.00
N5841  N     0.61224   0.44662   0.76686   0.12311  Uiso   1.00
H5842  H     0.59432   0.48111   0.93042   0.12311  Uiso   1.00
H5843  H     0.59770   0.41743   0.80915   0.12311  Uiso   1.00
H5844  H     0.54849   0.48602   0.95171   0.12311  Uiso   1.00
H5845  H     0.57158   0.48848   0.94242   0.12311  Uiso   1.00
H5846  H     0.70862   0.31782   0.99459   0.12311  Uiso   0.00
C5847  C     0.72298   0.34326   0.95948   0.12311  Uiso   1.00
C5848  C     0.72483   0.30829   0.78017   0.12311  Uiso   1.00
C5849  C     0.71602   0.32167   0.99471   0.12311  Uiso   1.00
C5850  C     0.70122   0.31396   0.99448   0.12311  Uiso   1.00
C5851  C     0.67918   0.34132   0.97131   0.12311  Uiso   1.00
C5852  C     0.69289   0.34279   0.96580   0.12311  Uiso   1.00
N5853  N     0.73609   0.34323   0.97318   0.12311  Uiso   1.00
N5854  N     0.73724   0.32162   0.76686   0.12311  Uiso   1.00
H5855  H     0.71932   0.35611   0.93042   0.12311  Uiso   1.00
H5856  H     0.72270   0.29243   0.80915   0.12311  Uiso   1.00
H5857  H     0.67349   0.36102   0.95171   0.12311  Uiso   1.00
H5858  H     0.69658   0.36348   0.94242   0.12311  Uiso   1.00
H5859  H     0.66638   0.44282   0.88041   0.12311  Uiso   0.00
C5860  C     0.65202   0.46826   0.91552   0.12311  Uiso   1.00
C5861  C     0.65017   0.43329   0.84483   0.12311  Uiso   1.00
C5862  C     0.65898   0.44667   0.88029   0.12311  Uiso   1.00
C5863  C     0.67378   0.43896   0.88052   0.12311  Uiso   1.00
C5864  C     0.69582   0.46632   0.90369   0.12311  Uiso   1.00
C5865  C     0.68211   0.46779   0.90920   0.12311  Uiso   1.00
N5866  N     0.63891   0.46823   0.90182   0.12311  Uiso   1.00
N5867  N     0.63776   0.44662   0.85814   0.12311  Uiso   1.00
H5868  H     0.65568   0.48111   0.94458   0.12311  Uiso   1.00
H5869  H     0.65230   0.41743   0.81585   0.12311  Uiso   1.00
H5870  H     0.70151   0.48602   0.92329   0.12311  Uiso   1.00
H5871  H     0.67842   0.48848   0.93258   0.12311  Uiso   1.00
H5872  H     0.54138   0.31782   0.88041   0.12311  Uiso   0.00
C5873  C     0.52702   0.34326   0.91552   0.12311  Uiso   1.00
C5874  C     0.52517   0.30829   0.84483   0.12311  Uiso   1.00
C5875  C     0.53398   0.32167   0.88029   0.12311  Uiso   1.00
C5876  C     0.54878   0.31396   0.88052   0.12311  Uiso   1.00
C5877  C     0.57082   0.34132   0.90369   0.12311  Uiso   1.00
C5878  C     0.55711   0.34279   0.90920   0.12311  Uiso   1.00
N5879  N     0.51391   0.34323   0.90182   0.12311  Uiso   1.00
N5880  N     0.51276   0.32162   0.85814   0.12311  Uiso   1.00
H5881  H     0.53068   0.35611   0.94458   0.12311  Uiso   1.00
H5882  H     0.52730   0.29243   0.81585   0.12311  Uiso   1.00
H5883  H     0.57651   0.36102   0.92329   0.12311  Uiso   1.00
H5884  H     0.55342   0.36348   0.93258   0.12311  Uiso   1.00
H5885  H     0.66638   0.30718   0.75541   0.12311  Uiso   0.00
C5886  C     0.65202   0.28174   0.79052   0.12311  Uiso   1.00
C5887  C     0.65017   0.31671   0.96983   0.12311  Uiso   1.00
C5888  C     0.65898   0.30333   0.75529   0.12311  Uiso   1.00
C5889  C     0.67378   0.31104   0.75552   0.12311  Uiso   1.00
C5890  C     0.69582   0.28368   0.77869   0.12311  Uiso   1.00
C5891  C     0.68211   0.28221   0.78420   0.12311  Uiso   1.00
N5892  N     0.63891   0.28177   0.77682   0.12311  Uiso   1.00
N5893  N     0.63776   0.30338   0.98314   0.12311  Uiso   1.00
H5894  H     0.65568   0.26889   0.81958   0.12311  Uiso   1.00
H5895  H     0.65230   0.33257   0.94085   0.12311  Uiso   1.00
H5896  H     0.70151   0.26398   0.79829   0.12311  Uiso   1.00
H5897  H     0.67842   0.26152   0.80758   0.12311  Uiso   1.00
H5898  H     0.54138   0.43218   0.75541   0.12311  Uiso   0.00
C5899  C     0.52702   0.40674   0.79052   0.12311  Uiso   1.00
C5900  C     0.52517   0.44171   0.96983   0.12311  Uiso   1.00
C5901  C     0.53398   0.42833   0.75529   0.12311  Uiso   1.00
C5902  C     0.54878   0.43604   0.75552   0.12311  Uiso   1.00
C5903  C     0.57082   0.40868   0.77869   0.12311  Uiso   1.00
C5904  C     0.55711   0.40721   0.78420   0.12311  Uiso   1.00
N5905  N     0.51391   0.40677   0.77682   0.12311  Uiso   1.00
N5906  N     0.51276   0.42838   0.98314   0.12311  Uiso   1.00
H5907  H     0.53068   0.39389   0.81958   0.12311  Uiso   1.00
H5908  H     0.52730   0.45757   0.94085   0.12311  Uiso   1.00
H5909  H     0.57651   0.38898   0.79829   0.12311  Uiso   1.00
H5910  H     0.55342   0.38652   0.80758   0.12311  Uiso   1.00
H5911  H     0.58362   0.30718   0.86959   0.12311  Uiso   0.00
C5912  C     0.59798   0.28174   0.83448   0.12311  Uiso   1.00
C5913  C     0.59983   0.31671   0.90517   0.12311  Uiso   1.00
C5914  C     0.59102   0.30333   0.86971   0.12311  Uiso   1.00
C5915  C     0.57622   0.31104   0.86948   0.12311  Uiso   1.00
C5916  C     0.55418   0.28368   0.84631   0.12311  Uiso   1.00
C5917  C     0.56789   0.28221   0.84080   0.12311  Uiso   1.00
N5918  N     0.61109   0.28177   0.84818   0.12311  Uiso   1.00
N5919  N     0.61224   0.30338   0.89186   0.12311  Uiso   1.00
H5920  H     0.59432   0.26889   0.80542   0.12311  Uiso   1.00
H5921  H     0.59770   0.33257   0.93415   0.12311  Uiso   1.00
H5922  H     0.54849   0.26398   0.82671   0.12311  Uiso   1.00
H5923  H     0.57158   0.26152   0.81742   0.12311  Uiso   1.00
H5924  H     0.70862   0.43218   0.86959   0.12311  Uiso   0.00
C5925  C     0.72298   0.40674   0.83448   0.12311  Uiso   1.00
C5926  C     0.72483   0.44171   0.90517   0.12311  Uiso   1.00
C5927  C     0.71602   0.42833   0.86971   0.12311  Uiso   1.00
C5928  C     0.70122   0.43604   0.86948   0.12311  Uiso   1.00
C5929  C     0.67918   0.40868   0.84631   0.12311  Uiso   1.00
C5930  C     0.69289   0.40721   0.84080   0.12311  Uiso   1.00
N5931  N     0.73609   0.40677   0.84818   0.12311  Uiso   1.00
N5932  N     0.73724   0.42838   0.89186   0.12311  Uiso   1.00
H5933  H     0.71932   0.39389   0.80542   0.12311  Uiso   1.00
H5934  H     0.72270   0.45757   0.93415   0.12311  Uiso   1.00
H5935  H     0.67349   0.38898   0.82671   0.12311  Uiso   1.00
H5936  H     0.69658   0.38652   0.81742   0.12311  Uiso   1.00
Fe5937 Fe    0.50000   0.36461   0.81250   0.12311  Uiso   1.00
Fe5938 Fe    0.62500   0.48961   0.81250   0.12311  Uiso   1.00
Fe5939 Fe    0.50000   0.38539   0.93750   0.12311  Uiso   1.00
Fe5940 Fe    0.62500   0.26039   0.93750   0.12311  Uiso   1.00
H5941  H     0.83362   0.44282   0.99459   0.12311  Uiso   0.00
C5942  C     0.84798   0.46826   0.95948   0.12311  Uiso   1.00
C5943  C     0.84983   0.43329   0.78017   0.12311  Uiso   1.00
C5944  C     0.84102   0.44667   0.99471   0.12311  Uiso   1.00
C5945  C     0.82622   0.43896   0.99448   0.12311  Uiso   1.00
C5946  C     0.80418   0.46632   0.97131   0.12311  Uiso   1.00
C5947  C     0.81789   0.46779   0.96580   0.12311  Uiso   1.00
N5948  N     0.86109   0.46823   0.97318   0.12311  Uiso   1.00
N5949  N     0.86224   0.44662   0.76686   0.12311  Uiso   1.00
H5950  H     0.84432   0.48111   0.93042   0.12311  Uiso   1.00
H5951  H     0.84770   0.41743   0.80915   0.12311  Uiso   1.00
H5952  H     0.79849   0.48602   0.95171   0.12311  Uiso   1.00
H5953  H     0.82158   0.48848   0.94242   0.12311  Uiso   1.00
H5954  H     0.95862   0.31782   0.99459   0.12311  Uiso   0.00
C5955  C     0.97298   0.34326   0.95948   0.12311  Uiso   1.00
C5956  C     0.97483   0.30829   0.78017   0.12311  Uiso   1.00
C5957  C     0.96602   0.32167   0.99471   0.12311  Uiso   1.00
C5958  C     0.95122   0.31396   0.99448   0.12311  Uiso   1.00
C5959  C     0.92918   0.34132   0.97131   0.12311  Uiso   1.00
C5960  C     0.94289   0.34279   0.96580   0.12311  Uiso   1.00
N5961  N     0.98609   0.34323   0.97318   0.12311  Uiso   1.00
N5962  N     0.98724   0.32162   0.76686   0.12311  Uiso   1.00
H5963  H     0.96932   0.35611   0.93042   0.12311  Uiso   1.00
H5964  H     0.97270   0.29243   0.80915   0.12311  Uiso   1.00
H5965  H     0.92349   0.36102   0.95171   0.12311  Uiso   1.00
H5966  H     0.94658   0.36348   0.94242   0.12311  Uiso   1.00
H5967  H     0.91638   0.44282   0.88041   0.12311  Uiso   0.00
C5968  C     0.90202   0.46826   0.91552   0.12311  Uiso   1.00
C5969  C     0.90017   0.43329   0.84483   0.12311  Uiso   1.00
C5970  C     0.90898   0.44667   0.88029   0.12311  Uiso   1.00
C5971  C     0.92378   0.43896   0.88052   0.12311  Uiso   1.00
C5972  C     0.94582   0.46632   0.90369   0.12311  Uiso   1.00
C5973  C     0.93211   0.46779   0.90920   0.12311  Uiso   1.00
N5974  N     0.88891   0.46823   0.90182   0.12311  Uiso   1.00
N5975  N     0.88776   0.44662   0.85814   0.12311  Uiso   1.00
H5976  H     0.90568   0.48111   0.94458   0.12311  Uiso   1.00
H5977  H     0.90230   0.41743   0.81585   0.12311  Uiso   1.00
H5978  H     0.95151   0.48602   0.92329   0.12311  Uiso   1.00
H5979  H     0.92842   0.48848   0.93258   0.12311  Uiso   1.00
H5980  H     0.79138   0.31782   0.88041   0.12311  Uiso   0.00
C5981  C     0.77702   0.34326   0.91552   0.12311  Uiso   1.00
C5982  C     0.77517   0.30829   0.84483   0.12311  Uiso   1.00
C5983  C     0.78398   0.32167   0.88029   0.12311  Uiso   1.00
C5984  C     0.79878   0.31396   0.88052   0.12311  Uiso   1.00
C5985  C     0.82082   0.34132   0.90369   0.12311  Uiso   1.00
C5986  C     0.80711   0.34279   0.90920   0.12311  Uiso   1.00
N5987  N     0.76391   0.34323   0.90182   0.12311  Uiso   1.00
N5988  N     0.76276   0.32162   0.85814   0.12311  Uiso   1.00
H5989  H     0.78068   0.35611   0.94458   0.12311  Uiso   1.00
H5990  H     0.77730   0.29243   0.81585   0.12311  Uiso   1.00
H5991  H     0.82651   0.36102   0.92329   0.12311  Uiso   1.00
H5992  H     0.80342   0.36348   0.93258   0.12311  Uiso   1.00
H5993  H     0.91638   0.30718   0.75541   0.12311  Uiso   0.00
C5994  C     0.90202   0.28174   0.79052   0.12311  Uiso   1.00
C5995  C     0.90017   0.31671   0.96983   0.12311  Uiso   1.00
C5996  C     0.90898   0.30333   0.75529   0.12311  Uiso   1.00
C5997  C     0.92378   0.31104   0.75552   0.12311  Uiso   1.00
C5998  C     0.94582   0.28368   0.77869   0.12311  Uiso   1.00
C5999  C     0.93211   0.28221   0.78420   0.12311  Uiso   1.00
N6000  N     0.88891   0.28177   0.77682   0.12311  Uiso   1.00
N6001  N     0.88776   0.30338   0.98314   0.12311  Uiso   1.00
H6002  H     0.90568   0.26889   0.81958   0.12311  Uiso   1.00
H6003  H     0.90230   0.33257   0.94085   0.12311  Uiso   1.00
H6004  H     0.95151   0.26398   0.79829   0.12311  Uiso   1.00
H6005  H     0.92842   0.26152   0.80758   0.12311  Uiso   1.00
H6006  H     0.79138   0.43218   0.75541   0.12311  Uiso   0.00
C6007  C     0.77702   0.40674   0.79052   0.12311  Uiso   1.00
C6008  C     0.77517   0.44171   0.96983   0.12311  Uiso   1.00
C6009  C     0.78398   0.42833   0.75529   0.12311  Uiso   1.00
C6010  C     0.79878   0.43604   0.75552   0.12311  Uiso   1.00
C6011  C     0.82082   0.40868   0.77869   0.12311  Uiso   1.00
C6012  C     0.80711   0.40721   0.78420   0.12311  Uiso   1.00
N6013  N     0.76391   0.40677   0.77682   0.12311  Uiso   1.00
N6014  N     0.76276   0.42838   0.98314   0.12311  Uiso   1.00
H6015  H     0.78068   0.39389   0.81958   0.12311  Uiso   1.00
H6016  H     0.77730   0.45757   0.94085   0.12311  Uiso   1.00
H6017  H     0.82651   0.38898   0.79829   0.12311  Uiso   1.00
H6018  H     0.80342   0.38652   0.80758   0.12311  Uiso   1.00
H6019  H     0.83362   0.30718   0.86959   0.12311  Uiso   0.00
C6020  C     0.84798   0.28174   0.83448   0.12311  Uiso   1.00
C6021  C     0.84983   0.31671   0.90517   0.12311  Uiso   1.00
C6022  C     0.84102   0.30333   0.86971   0.12311  Uiso   1.00
C6023  C     0.82622   0.31104   0.86948   0.12311  Uiso   1.00
C6024  C     0.80418   0.28368   0.84631   0.12311  Uiso   1.00
C6025  C     0.81789   0.28221   0.84080   0.12311  Uiso   1.00
N6026  N     0.86109   0.28177   0.84818   0.12311  Uiso   1.00
N6027  N     0.86224   0.30338   0.89186   0.12311  Uiso   1.00
H6028  H     0.84432   0.26889   0.80542   0.12311  Uiso   1.00
H6029  H     0.84770   0.33257   0.93415   0.12311  Uiso   1.00
H6030  H     0.79849   0.26398   0.82671   0.12311  Uiso   1.00
H6031  H     0.82158   0.26152   0.81742   0.12311  Uiso   1.00
H6032  H     0.95862   0.43218   0.86959   0.12311  Uiso   0.00
C6033  C     0.97298   0.40674   0.83448   0.12311  Uiso   1.00
C6034  C     0.97483   0.44171   0.90517   0.12311  Uiso   1.00
C6035  C     0.96602   0.42833   0.86971   0.12311  Uiso   1.00
C6036  C     0.95122   0.43604   0.86948   0.12311  Uiso   1.00
C6037  C     0.92918   0.40868   0.84631   0.12311  Uiso   1.00
C6038  C     0.94289   0.40721   0.84080   0.12311  Uiso   1.00
N6039  N     0.98609   0.40677   0.84818   0.12311  Uiso   1.00
N6040  N     0.98724   0.42838   0.89186   0.12311  Uiso   1.00
H6041  H     0.96932   0.39389   0.80542   0.12311  Uiso   1.00
H6042  H     0.97270   0.45757   0.93415   0.12311  Uiso   1.00
H6043  H     0.92349   0.38898   0.82671   0.12311  Uiso   1.00
H6044  H     0.94658   0.38652   0.81742   0.12311  Uiso   1.00
Fe6045 Fe    0.75000   0.36461   0.81250   0.12311  Uiso   1.00
Fe6046 Fe    0.87500   0.48961   0.81250   0.12311  Uiso   1.00
Fe6047 Fe    0.75000   0.38539   0.93750   0.12311  Uiso   1.00
Fe6048 Fe    0.87500   0.26039   0.93750   0.12311  Uiso   1.00
H6049  H     0.08362   0.69282   0.99459   0.12311  Uiso   0.00
C6050  C     0.09798   0.71826   0.95948   0.12311  Uiso   1.00
C6051  C     0.09983   0.68329   0.78017   0.12311  Uiso   1.00
C6052  C     0.09102   0.69667   0.99471   0.12311  Uiso   1.00
C6053  C     0.07622   0.68896   0.99448   0.12311  Uiso   1.00
C6054  C     0.05418   0.71632   0.97131   0.12311  Uiso   1.00
C6055  C     0.06789   0.71779   0.96580   0.12311  Uiso   1.00
N6056  N     0.11109   0.71823   0.97318   0.12311  Uiso   1.00
N6057  N     0.11224   0.69662   0.76686   0.12311  Uiso   1.00
H6058  H     0.09432   0.73111   0.93042   0.12311  Uiso   1.00
H6059  H     0.09770   0.66743   0.80915   0.12311  Uiso   1.00
H6060  H     0.04849   0.73602   0.95171   0.12311  Uiso   1.00
H6061  H     0.07158   0.73848   0.94242   0.12311  Uiso   1.00
H6062  H     0.20862   0.56782   0.99459   0.12311  Uiso   0.00
C6063  C     0.22298   0.59326   0.95948   0.12311  Uiso   1.00
C6064  C     0.22483   0.55829   0.78017   0.12311  Uiso   1.00
C6065  C     0.21602   0.57167   0.99471   0.12311  Uiso   1.00
C6066  C     0.20122   0.56396   0.99448   0.12311  Uiso   1.00
C6067  C     0.17918   0.59132   0.97131   0.12311  Uiso   1.00
C6068  C     0.19289   0.59279   0.96580   0.12311  Uiso   1.00
N6069  N     0.23609   0.59323   0.97318   0.12311  Uiso   1.00
N6070  N     0.23724   0.57162   0.76686   0.12311  Uiso   1.00
H6071  H     0.21932   0.60611   0.93042   0.12311  Uiso   1.00
H6072  H     0.22270   0.54243   0.80915   0.12311  Uiso   1.00
H6073  H     0.17349   0.61102   0.95171   0.12311  Uiso   1.00
H6074  H     0.19658   0.61348   0.94242   0.12311  Uiso   1.00
H6075  H     0.16638   0.69282   0.88041   0.12311  Uiso   0.00
C6076  C     0.15202   0.71826   0.91552   0.12311  Uiso   1.00
C6077  C     0.15017   0.68329   0.84483   0.12311  Uiso   1.00
C6078  C     0.15898   0.69667   0.88029   0.12311  Uiso   1.00
C6079  C     0.17378   0.68896   0.88052   0.12311  Uiso   1.00
C6080  C     0.19582   0.71632   0.90369   0.12311  Uiso   1.00
C6081  C     0.18211   0.71779   0.90920   0.12311  Uiso   1.00
N6082  N     0.13891   0.71823   0.90182   0.12311  Uiso   1.00
N6083  N     0.13776   0.69662   0.85814   0.12311  Uiso   1.00
H6084  H     0.15568   0.73111   0.94458   0.12311  Uiso   1.00
H6085  H     0.15230   0.66743   0.81585   0.12311  Uiso   1.00
H6086  H     0.20151   0.73602   0.92329   0.12311  Uiso   1.00
H6087  H     0.17842   0.73848   0.93258   0.12311  Uiso   1.00
H6088  H     0.04138   0.56782   0.88041   0.12311  Uiso   0.00
C6089  C     0.02702   0.59326   0.91552   0.12311  Uiso   1.00
C6090  C     0.02517   0.55829   0.84483   0.12311  Uiso   1.00
C6091  C     0.03398   0.57167   0.88029   0.12311  Uiso   1.00
C6092  C     0.04878   0.56396   0.88052   0.12311  Uiso   1.00
C6093  C     0.07082   0.59132   0.90369   0.12311  Uiso   1.00
C6094  C     0.05711   0.59279   0.90920   0.12311  Uiso   1.00
N6095  N     0.01391   0.59323   0.90182   0.12311  Uiso   1.00
N6096  N     0.01276   0.57162   0.85814   0.12311  Uiso   1.00
H6097  H     0.03068   0.60611   0.94458   0.12311  Uiso   1.00
H6098  H     0.02730   0.54243   0.81585   0.12311  Uiso   1.00
H6099  H     0.07651   0.61102   0.92329   0.12311  Uiso   1.00
H6100  H     0.05342   0.61348   0.93258   0.12311  Uiso   1.00
H6101  H     0.16638   0.55718   0.75541   0.12311  Uiso   0.00
C6102  C     0.15202   0.53174   0.79052   0.12311  Uiso   1.00
C6103  C     0.15017   0.56671   0.96983   0.12311  Uiso   1.00
C6104  C     0.15898   0.55333   0.75529   0.12311  Uiso   1.00
C6105  C     0.17378   0.56104   0.75552   0.12311  Uiso   1.00
C6106  C     0.19582   0.53368   0.77869   0.12311  Uiso   1.00
C6107  C     0.18211   0.53221   0.78420   0.12311  Uiso   1.00
N6108  N     0.13891   0.53177   0.77682   0.12311  Uiso   1.00
N6109  N     0.13776   0.55338   0.98314   0.12311  Uiso   1.00
H6110  H     0.15568   0.51889   0.81958   0.12311  Uiso   1.00
H6111  H     0.15230   0.58257   0.94085   0.12311  Uiso   1.00
H6112  H     0.20151   0.51398   0.79829   0.12311  Uiso   1.00
H6113  H     0.17842   0.51152   0.80758   0.12311  Uiso   1.00
H6114  H     0.04138   0.68218   0.75541   0.12311  Uiso   0.00
C6115  C     0.02702   0.65674   0.79052   0.12311  Uiso   1.00
C6116  C     0.02517   0.69171   0.96983   0.12311  Uiso   1.00
C6117  C     0.03398   0.67833   0.75529   0.12311  Uiso   1.00
C6118  C     0.04878   0.68604   0.75552   0.12311  Uiso   1.00
C6119  C     0.07082   0.65868   0.77869   0.12311  Uiso   1.00
C6120  C     0.05711   0.65721   0.78420   0.12311  Uiso   1.00
N6121  N     0.01391   0.65677   0.77682   0.12311  Uiso   1.00
N6122  N     0.01276   0.67838   0.98314   0.12311  Uiso   1.00
H6123  H     0.03068   0.64389   0.81958   0.12311  Uiso   1.00
H6124  H     0.02730   0.70757   0.94085   0.12311  Uiso   1.00
H6125  H     0.07651   0.63898   0.79829   0.12311  Uiso   1.00
H6126  H     0.05342   0.63652   0.80758   0.12311  Uiso   1.00
H6127  H     0.08362   0.55718   0.86959   0.12311  Uiso   0.00
C6128  C     0.09798   0.53174   0.83448   0.12311  Uiso   1.00
C6129  C     0.09983   0.56671   0.90517   0.12311  Uiso   1.00
C6130  C     0.09102   0.55333   0.86971   0.12311  Uiso   1.00
C6131  C     0.07622   0.56104   0.86948   0.12311  Uiso   1.00
C6132  C     0.05418   0.53368   0.84631   0.12311  Uiso   1.00
C6133  C     0.06789   0.53221   0.84080   0.12311  Uiso   1.00
N6134  N     0.11109   0.53177   0.84818   0.12311  Uiso   1.00
N6135  N     0.11224   0.55338   0.89186   0.12311  Uiso   1.00
H6136  H     0.09432   0.51889   0.80542   0.12311  Uiso   1.00
H6137  H     0.09770   0.58257   0.93415   0.12311  Uiso   1.00
H6138  H     0.04849   0.51398   0.82671   0.12311  Uiso   1.00
H6139  H     0.07158   0.51152   0.81742   0.12311  Uiso   1.00
H6140  H     0.20862   0.68218   0.86959   0.12311  Uiso   0.00
C6141  C     0.22298   0.65674   0.83448   0.12311  Uiso   1.00
C6142  C     0.22483   0.69171   0.90517   0.12311  Uiso   1.00
C6143  C     0.21602   0.67833   0.86971   0.12311  Uiso   1.00
C6144  C     0.20122   0.68604   0.86948   0.12311  Uiso   1.00
C6145  C     0.17918   0.65868   0.84631   0.12311  Uiso   1.00
C6146  C     0.19289   0.65721   0.84080   0.12311  Uiso   1.00
N6147  N     0.23609   0.65677   0.84818   0.12311  Uiso   1.00
N6148  N     0.23724   0.67838   0.89186   0.12311  Uiso   1.00
H6149  H     0.21932   0.64389   0.80542   0.12311  Uiso   1.00
H6150  H     0.22270   0.70757   0.93415   0.12311  Uiso   1.00
H6151  H     0.17349   0.63898   0.82671   0.12311  Uiso   1.00
H6152  H     0.19658   0.63652   0.81742   0.12311  Uiso   1.00
Fe6153 Fe    0.00000   0.61461   0.81250   0.12311  Uiso   1.00
Fe6154 Fe    0.12500   0.73961   0.81250   0.12311  Uiso   1.00
Fe6155 Fe    0.00000   0.63539   0.93750   0.12311  Uiso   1.00
Fe6156 Fe    0.12500   0.51039   0.93750   0.12311  Uiso   1.00
H6157  H     0.33362   0.69282   0.99459   0.12311  Uiso   0.00
C6158  C     0.34798   0.71826   0.95948   0.12311  Uiso   1.00
C6159  C     0.34983   0.68329   0.78017   0.12311  Uiso   1.00
C6160  C     0.34102   0.69667   0.99471   0.12311  Uiso   1.00
C6161  C     0.32622   0.68896   0.99448   0.12311  Uiso   1.00
C6162  C     0.30418   0.71632   0.97131   0.12311  Uiso   1.00
C6163  C     0.31789   0.71779   0.96580   0.12311  Uiso   1.00
N6164  N     0.36109   0.71823   0.97318   0.12311  Uiso   1.00
N6165  N     0.36224   0.69662   0.76686   0.12311  Uiso   1.00
H6166  H     0.34432   0.73111   0.93042   0.12311  Uiso   1.00
H6167  H     0.34770   0.66743   0.80915   0.12311  Uiso   1.00
H6168  H     0.29849   0.73602   0.95171   0.12311  Uiso   1.00
H6169  H     0.32158   0.73848   0.94242   0.12311  Uiso   1.00
H6170  H     0.45862   0.56782   0.99459   0.12311  Uiso   0.00
C6171  C     0.47298   0.59326   0.95948   0.12311  Uiso   1.00
C6172  C     0.47483   0.55829   0.78017   0.12311  Uiso   1.00
C6173  C     0.46602   0.57167   0.99471   0.12311  Uiso   1.00
C6174  C     0.45122   0.56396   0.99448   0.12311  Uiso   1.00
C6175  C     0.42918   0.59132   0.97131   0.12311  Uiso   1.00
C6176  C     0.44289   0.59279   0.96580   0.12311  Uiso   1.00
N6177  N     0.48609   0.59323   0.97318   0.12311  Uiso   1.00
N6178  N     0.48724   0.57162   0.76686   0.12311  Uiso   1.00
H6179  H     0.46932   0.60611   0.93042   0.12311  Uiso   1.00
H6180  H     0.47270   0.54243   0.80915   0.12311  Uiso   1.00
H6181  H     0.42349   0.61102   0.95171   0.12311  Uiso   1.00
H6182  H     0.44658   0.61348   0.94242   0.12311  Uiso   1.00
H6183  H     0.41638   0.69282   0.88041   0.12311  Uiso   0.00
C6184  C     0.40202   0.71826   0.91552   0.12311  Uiso   1.00
C6185  C     0.40017   0.68329   0.84483   0.12311  Uiso   1.00
C6186  C     0.40898   0.69667   0.88029   0.12311  Uiso   1.00
C6187  C     0.42378   0.68896   0.88052   0.12311  Uiso   1.00
C6188  C     0.44582   0.71632   0.90369   0.12311  Uiso   1.00
C6189  C     0.43211   0.71779   0.90920   0.12311  Uiso   1.00
N6190  N     0.38891   0.71823   0.90182   0.12311  Uiso   1.00
N6191  N     0.38776   0.69662   0.85814   0.12311  Uiso   1.00
H6192  H     0.40568   0.73111   0.94458   0.12311  Uiso   1.00
H6193  H     0.40230   0.66743   0.81585   0.12311  Uiso   1.00
H6194  H     0.45151   0.73602   0.92329   0.12311  Uiso   1.00
H6195  H     0.42842   0.73848   0.93258   0.12311  Uiso   1.00
H6196  H     0.29138   0.56782   0.88041   0.12311  Uiso   0.00
C6197  C     0.27702   0.59326   0.91552   0.12311  Uiso   1.00
C6198  C     0.27517   0.55829   0.84483   0.12311  Uiso   1.00
C6199  C     0.28398   0.57167   0.88029   0.12311  Uiso   1.00
C6200  C     0.29878   0.56396   0.88052   0.12311  Uiso   1.00
C6201  C     0.32082   0.59132   0.90369   0.12311  Uiso   1.00
C6202  C     0.30711   0.59279   0.90920   0.12311  Uiso   1.00
N6203  N     0.26391   0.59323   0.90182   0.12311  Uiso   1.00
N6204  N     0.26276   0.57162   0.85814   0.12311  Uiso   1.00
H6205  H     0.28068   0.60611   0.94458   0.12311  Uiso   1.00
H6206  H     0.27730   0.54243   0.81585   0.12311  Uiso   1.00
H6207  H     0.32651   0.61102   0.92329   0.12311  Uiso   1.00
H6208  H     0.30342   0.61348   0.93258   0.12311  Uiso   1.00
H6209  H     0.41638   0.55718   0.75541   0.12311  Uiso   0.00
C6210  C     0.40202   0.53174   0.79052   0.12311  Uiso   1.00
C6211  C     0.40017   0.56671   0.96983   0.12311  Uiso   1.00
C6212  C     0.40898   0.55333   0.75529   0.12311  Uiso   1.00
C6213  C     0.42378   0.56104   0.75552   0.12311  Uiso   1.00
C6214  C     0.44582   0.53368   0.77869   0.12311  Uiso   1.00
C6215  C     0.43211   0.53221   0.78420   0.12311  Uiso   1.00
N6216  N     0.38891   0.53177   0.77682   0.12311  Uiso   1.00
N6217  N     0.38776   0.55338   0.98314   0.12311  Uiso   1.00
H6218  H     0.40568   0.51889   0.81958   0.12311  Uiso   1.00
H6219  H     0.40230   0.58257   0.94085   0.12311  Uiso   1.00
H6220  H     0.45151   0.51398   0.79829   0.12311  Uiso   1.00
H6221  H     0.42842   0.51152   0.80758   0.12311  Uiso   1.00
H6222  H     0.29138   0.68218   0.75541   0.12311  Uiso   0.00
C6223  C     0.27702   0.65674   0.79052   0.12311  Uiso   1.00
C6224  C     0.27517   0.69171   0.96983   0.12311  Uiso   1.00
C6225  C     0.28398   0.67833   0.75529   0.12311  Uiso   1.00
C6226  C     0.29878   0.68604   0.75552   0.12311  Uiso   1.00
C6227  C     0.32082   0.65868   0.77869   0.12311  Uiso   1.00
C6228  C     0.30711   0.65721   0.78420   0.12311  Uiso   1.00
N6229  N     0.26391   0.65677   0.77682   0.12311  Uiso   1.00
N6230  N     0.26276   0.67838   0.98314   0.12311  Uiso   1.00
H6231  H     0.28068   0.64389   0.81958   0.12311  Uiso   1.00
H6232  H     0.27730   0.70757   0.94085   0.12311  Uiso   1.00
H6233  H     0.32651   0.63898   0.79829   0.12311  Uiso   1.00
H6234  H     0.30342   0.63652   0.80758   0.12311  Uiso   1.00
H6235  H     0.33362   0.55718   0.86959   0.12311  Uiso   0.00
C6236  C     0.34798   0.53174   0.83448   0.12311  Uiso   1.00
C6237  C     0.34983   0.56671   0.90517   0.12311  Uiso   1.00
C6238  C     0.34102   0.55333   0.86971   0.12311  Uiso   1.00
C6239  C     0.32622   0.56104   0.86948   0.12311  Uiso   1.00
C6240  C     0.30418   0.53368   0.84631   0.12311  Uiso   1.00
C6241  C     0.31789   0.53221   0.84080   0.12311  Uiso   1.00
N6242  N     0.36109   0.53177   0.84818   0.12311  Uiso   1.00
N6243  N     0.36224   0.55338   0.89186   0.12311  Uiso   1.00
H6244  H     0.34432   0.51889   0.80542   0.12311  Uiso   1.00
H6245  H     0.34770   0.58257   0.93415   0.12311  Uiso   1.00
H6246  H     0.29849   0.51398   0.82671   0.12311  Uiso   1.00
H6247  H     0.32158   0.51152   0.81742   0.12311  Uiso   1.00
H6248  H     0.45862   0.68218   0.86959   0.12311  Uiso   0.00
C6249  C     0.47298   0.65674   0.83448   0.12311  Uiso   1.00
C6250  C     0.47483   0.69171   0.90517   0.12311  Uiso   1.00
C6251  C     0.46602   0.67833   0.86971   0.12311  Uiso   1.00
C6252  C     0.45122   0.68604   0.86948   0.12311  Uiso   1.00
C6253  C     0.42918   0.65868   0.84631   0.12311  Uiso   1.00
C6254  C     0.44289   0.65721   0.84080   0.12311  Uiso   1.00
N6255  N     0.48609   0.65677   0.84818   0.12311  Uiso   1.00
N6256  N     0.48724   0.67838   0.89186   0.12311  Uiso   1.00
H6257  H     0.46932   0.64389   0.80542   0.12311  Uiso   1.00
H6258  H     0.47270   0.70757   0.93415   0.12311  Uiso   1.00
H6259  H     0.42349   0.63898   0.82671   0.12311  Uiso   1.00
H6260  H     0.44658   0.63652   0.81742   0.12311  Uiso   1.00
Fe6261 Fe    0.25000   0.61461   0.81250   0.12311  Uiso   1.00
Fe6262 Fe    0.37500   0.73961   0.81250   0.12311  Uiso   1.00
Fe6263 Fe    0.25000   0.63539   0.93750   0.12311  Uiso   1.00
Fe6264 Fe    0.37500   0.51039   0.93750   0.12311  Uiso   1.00
H6265  H     0.58362   0.69282   0.99459   0.12311  Uiso   0.00
C6266  C     0.59798   0.71826   0.95948   0.12311  Uiso   1.00
C6267  C     0.59983   0.68329   0.78017   0.12311  Uiso   1.00
C6268  C     0.59102   0.69667   0.99471   0.12311  Uiso   1.00
C6269  C     0.57622   0.68896   0.99448   0.12311  Uiso   1.00
C6270  C     0.55418   0.71632   0.97131   0.12311  Uiso   1.00
C6271  C     0.56789   0.71779   0.96580   0.12311  Uiso   1.00
N6272  N     0.61109   0.71823   0.97318   0.12311  Uiso   1.00
N6273  N     0.61224   0.69662   0.76686   0.12311  Uiso   1.00
H6274  H     0.59432   0.73111   0.93042   0.12311  Uiso   1.00
H6275  H     0.59770   0.66743   0.80915   0.12311  Uiso   1.00
H6276  H     0.54849   0.73602   0.95171   0.12311  Uiso   1.00
H6277  H     0.57158   0.73848   0.94242   0.12311  Uiso   1.00
H6278  H     0.70862   0.56782   0.99459   0.12311  Uiso   0.00
C6279  C     0.72298   0.59326   0.95948   0.12311  Uiso   1.00
C6280  C     0.72483   0.55829   0.78017   0.12311  Uiso   1.00
C6281  C     0.71602   0.57167   0.99471   0.12311  Uiso   1.00
C6282  C     0.70122   0.56396   0.99448   0.12311  Uiso   1.00
C6283  C     0.67918   0.59132   0.97131   0.12311  Uiso   1.00
C6284  C     0.69289   0.59279   0.96580   0.12311  Uiso   1.00
N6285  N     0.73609   0.59323   0.97318   0.12311  Uiso   1.00
N6286  N     0.73724   0.57162   0.76686   0.12311  Uiso   1.00
H6287  H     0.71932   0.60611   0.93042   0.12311  Uiso   1.00
H6288  H     0.72270   0.54243   0.80915   0.12311  Uiso   1.00
H6289  H     0.67349   0.61102   0.95171   0.12311  Uiso   1.00
H6290  H     0.69658   0.61348   0.94242   0.12311  Uiso   1.00
H6291  H     0.66638   0.69282   0.88041   0.12311  Uiso   0.00
C6292  C     0.65202   0.71826   0.91552   0.12311  Uiso   1.00
C6293  C     0.65017   0.68329   0.84483   0.12311  Uiso   1.00
C6294  C     0.65898   0.69667   0.88029   0.12311  Uiso   1.00
C6295  C     0.67378   0.68896   0.88052   0.12311  Uiso   1.00
C6296  C     0.69582   0.71632   0.90369   0.12311  Uiso   1.00
C6297  C     0.68211   0.71779   0.90920   0.12311  Uiso   1.00
N6298  N     0.63891   0.71823   0.90182   0.12311  Uiso   1.00
N6299  N     0.63776   0.69662   0.85814   0.12311  Uiso   1.00
H6300  H     0.65568   0.73111   0.94458   0.12311  Uiso   1.00
H6301  H     0.65230   0.66743   0.81585   0.12311  Uiso   1.00
H6302  H     0.70151   0.73602   0.92329   0.12311  Uiso   1.00
H6303  H     0.67842   0.73848   0.93258   0.12311  Uiso   1.00
H6304  H     0.54138   0.56782   0.88041   0.12311  Uiso   0.00
C6305  C     0.52702   0.59326   0.91552   0.12311  Uiso   1.00
C6306  C     0.52517   0.55829   0.84483   0.12311  Uiso   1.00
C6307  C     0.53398   0.57167   0.88029   0.12311  Uiso   1.00
C6308  C     0.54878   0.56396   0.88052   0.12311  Uiso   1.00
C6309  C     0.57082   0.59132   0.90369   0.12311  Uiso   1.00
C6310  C     0.55711   0.59279   0.90920   0.12311  Uiso   1.00
N6311  N     0.51391   0.59323   0.90182   0.12311  Uiso   1.00
N6312  N     0.51276   0.57162   0.85814   0.12311  Uiso   1.00
H6313  H     0.53068   0.60611   0.94458   0.12311  Uiso   1.00
H6314  H     0.52730   0.54243   0.81585   0.12311  Uiso   1.00
H6315  H     0.57651   0.61102   0.92329   0.12311  Uiso   1.00
H6316  H     0.55342   0.61348   0.93258   0.12311  Uiso   1.00
H6317  H     0.66638   0.55718   0.75541   0.12311  Uiso   0.00
C6318  C     0.65202   0.53174   0.79052   0.12311  Uiso   1.00
C6319  C     0.65017   0.56671   0.96983   0.12311  Uiso   1.00
C6320  C     0.65898   0.55333   0.75529   0.12311  Uiso   1.00
C6321  C     0.67378   0.56104   0.75552   0.12311  Uiso   1.00
C6322  C     0.69582   0.53368   0.77869   0.12311  Uiso   1.00
C6323  C     0.68211   0.53221   0.78420   0.12311  Uiso   1.00
N6324  N     0.63891   0.53177   0.77682   0.12311  Uiso   1.00
N6325  N     0.63776   0.55338   0.98314   0.12311  Uiso   1.00
H6326  H     0.65568   0.51889   0.81958   0.12311  Uiso   1.00
H6327  H     0.65230   0.58257   0.94085   0.12311  Uiso   1.00
H6328  H     0.70151   0.51398   0.79829   0.12311  Uiso   1.00
H6329  H     0.67842   0.51152   0.80758   0.12311  Uiso   1.00
H6330  H     0.54138   0.68218   0.75541   0.12311  Uiso   0.00
C6331  C     0.52702   0.65674   0.79052   0.12311  Uiso   1.00
C6332  C     0.52517   0.69171   0.96983   0.12311  Uiso   1.00
C6333  C     0.53398   0.67833   0.75529   0.12311  Uiso   1.00
C6334  C     0.54878   0.68604   0.75552   0.12311  Uiso   1.00
C6335  C     0.57082   0.65868   0.77869   0.12311  Uiso   1.00
C6336  C     0.55711   0.65721   0.78420   0.12311  Uiso   1.00
N6337  N     0.51391   0.65677   0.77682   0.12311  Uiso   1.00
N6338  N     0.51276   0.67838   0.98314   0.12311  Uiso   1.00
H6339  H     0.53068   0.64389   0.81958   0.12311  Uiso   1.00
H6340  H     0.52730   0.70757   0.94085   0.12311  Uiso   1.00
H6341  H     0.57651   0.63898   0.79829   0.12311  Uiso   1.00
H6342  H     0.55342   0.63652   0.80758   0.12311  Uiso   1.00
H6343  H     0.58362   0.55718   0.86959   0.12311  Uiso   0.00
C6344  C     0.59798   0.53174   0.83448   0.12311  Uiso   1.00
C6345  C     0.59983   0.56671   0.90517   0.12311  Uiso   1.00
C6346  C     0.59102   0.55333   0.86971   0.12311  Uiso   1.00
C6347  C     0.57622   0.56104   0.86948   0.12311  Uiso   1.00
C6348  C     0.55418   0.53368   0.84631   0.12311  Uiso   1.00
C6349  C     0.56789   0.53221   0.84080   0.12311  Uiso   1.00
N6350  N     0.61109   0.53177   0.84818   0.12311  Uiso   1.00
N6351  N     0.61224   0.55338   0.89186   0.12311  Uiso   1.00
H6352  H     0.59432   0.51889   0.80542   0.12311  Uiso   1.00
H6353  H     0.59770   0.58257   0.93415   0.12311  Uiso   1.00
H6354  H     0.54849   0.51398   0.82671   0.12311  Uiso   1.00
H6355  H     0.57158   0.51152   0.81742   0.12311  Uiso   1.00
H6356  H     0.70862   0.68218   0.86959   0.12311  Uiso   0.00
C6357  C     0.72298   0.65674   0.83448   0.12311  Uiso   1.00
C6358  C     0.72483   0.69171   0.90517   0.12311  Uiso   1.00
C6359  C     0.71602   0.67833   0.86971   0.12311  Uiso   1.00
C6360  C     0.70122   0.68604   0.86948   0.12311  Uiso   1.00
C6361  C     0.67918   0.65868   0.84631   0.12311  Uiso   1.00
C6362  C     0.69289   0.65721   0.84080   0.12311  Uiso   1.00
N6363  N     0.73609   0.65677   0.84818   0.12311  Uiso   1.00
N6364  N     0.73724   0.67838   0.89186   0.12311  Uiso   1.00
H6365  H     0.71932   0.64389   0.80542   0.12311  Uiso   1.00
H6366  H     0.72270   0.70757   0.93415   0.12311  Uiso   1.00
H6367  H     0.67349   0.63898   0.82671   0.12311  Uiso   1.00
H6368  H     0.69658   0.63652   0.81742   0.12311  Uiso   1.00
Fe6369 Fe    0.50000   0.61461   0.81250   0.12311  Uiso   1.00
Fe6370 Fe    0.62500   0.73961   0.81250   0.12311  Uiso   1.00
Fe6371 Fe    0.50000   0.63539   0.93750   0.12311  Uiso   1.00
Fe6372 Fe    0.62500   0.51039   0.93750   0.12311  Uiso   1.00
H6373  H     0.83362   0.69282   0.99459   0.12311  Uiso   0.00
C6374  C     0.84798   0.71826   0.95948   0.12311  Uiso   1.00
C6375  C     0.84983   0.68329   0.78017   0.12311  Uiso   1.00
C6376  C     0.84102   0.69667   0.99471   0.12311  Uiso   1.00
C6377  C     0.82622   0.68896   0.99448   0.12311  Uiso   1.00
C6378  C     0.80418   0.71632   0.97131   0.12311  Uiso   1.00
C6379  C     0.81789   0.71779   0.96580   0.12311  Uiso   1.00
N6380  N     0.86109   0.71823   0.97318   0.12311  Uiso   1.00
N6381  N     0.86224   0.69662   0.76686   0.12311  Uiso   1.00
H6382  H     0.84432   0.73111   0.93042   0.12311  Uiso   1.00
H6383  H     0.84770   0.66743   0.80915   0.12311  Uiso   1.00
H6384  H     0.79849   0.73602   0.95171   0.12311  Uiso   1.00
H6385  H     0.82158   0.73848   0.94242   0.12311  Uiso   1.00
H6386  H     0.95862   0.56782   0.99459   0.12311  Uiso   0.00
C6387  C     0.97298   0.59326   0.95948   0.12311  Uiso   1.00
C6388  C     0.97483   0.55829   0.78017   0.12311  Uiso   1.00
C6389  C     0.96602   0.57167   0.99471   0.12311  Uiso   1.00
C6390  C     0.95122   0.56396   0.99448   0.12311  Uiso   1.00
C6391  C     0.92918   0.59132   0.97131   0.12311  Uiso   1.00
C6392  C     0.94289   0.59279   0.96580   0.12311  Uiso   1.00
N6393  N     0.98609   0.59323   0.97318   0.12311  Uiso   1.00
N6394  N     0.98724   0.57162   0.76686   0.12311  Uiso   1.00
H6395  H     0.96932   0.60611   0.93042   0.12311  Uiso   1.00
H6396  H     0.97270   0.54243   0.80915   0.12311  Uiso   1.00
H6397  H     0.92349   0.61102   0.95171   0.12311  Uiso   1.00
H6398  H     0.94658   0.61348   0.94242   0.12311  Uiso   1.00
H6399  H     0.91638   0.69282   0.88041   0.12311  Uiso   0.00
C6400  C     0.90202   0.71826   0.91552   0.12311  Uiso   1.00
C6401  C     0.90017   0.68329   0.84483   0.12311  Uiso   1.00
C6402  C     0.90898   0.69667   0.88029   0.12311  Uiso   1.00
C6403  C     0.92378   0.68896   0.88052   0.12311  Uiso   1.00
C6404  C     0.94582   0.71632   0.90369   0.12311  Uiso   1.00
C6405  C     0.93211   0.71779   0.90920   0.12311  Uiso   1.00
N6406  N     0.88891   0.71823   0.90182   0.12311  Uiso   1.00
N6407  N     0.88776   0.69662   0.85814   0.12311  Uiso   1.00
H6408  H     0.90568   0.73111   0.94458   0.12311  Uiso   1.00
H6409  H     0.90230   0.66743   0.81585   0.12311  Uiso   1.00
H6410  H     0.95151   0.73602   0.92329   0.12311  Uiso   1.00
H6411  H     0.92842   0.73848   0.93258   0.12311  Uiso   1.00
H6412  H     0.79138   0.56782   0.88041   0.12311  Uiso   0.00
C6413  C     0.77702   0.59326   0.91552   0.12311  Uiso   1.00
C6414  C     0.77517   0.55829   0.84483   0.12311  Uiso   1.00
C6415  C     0.78398   0.57167   0.88029   0.12311  Uiso   1.00
C6416  C     0.79878   0.56396   0.88052   0.12311  Uiso   1.00
C6417  C     0.82082   0.59132   0.90369   0.12311  Uiso   1.00
C6418  C     0.80711   0.59279   0.90920   0.12311  Uiso   1.00
N6419  N     0.76391   0.59323   0.90182   0.12311  Uiso   1.00
N6420  N     0.76276   0.57162   0.85814   0.12311  Uiso   1.00
H6421  H     0.78068   0.60611   0.94458   0.12311  Uiso   1.00
H6422  H     0.77730   0.54243   0.81585   0.12311  Uiso   1.00
H6423  H     0.82651   0.61102   0.92329   0.12311  Uiso   1.00
H6424  H     0.80342   0.61348   0.93258   0.12311  Uiso   1.00
H6425  H     0.91638   0.55718   0.75541   0.12311  Uiso   0.00
C6426  C     0.90202   0.53174   0.79052   0.12311  Uiso   1.00
C6427  C     0.90017   0.56671   0.96983   0.12311  Uiso   1.00
C6428  C     0.90898   0.55333   0.75529   0.12311  Uiso   1.00
C6429  C     0.92378   0.56104   0.75552   0.12311  Uiso   1.00
C6430  C     0.94582   0.53368   0.77869   0.12311  Uiso   1.00
C6431  C     0.93211   0.53221   0.78420   0.12311  Uiso   1.00
N6432  N     0.88891   0.53177   0.77682   0.12311  Uiso   1.00
N6433  N     0.88776   0.55338   0.98314   0.12311  Uiso   1.00
H6434  H     0.90568   0.51889   0.81958   0.12311  Uiso   1.00
H6435  H     0.90230   0.58257   0.94085   0.12311  Uiso   1.00
H6436  H     0.95151   0.51398   0.79829   0.12311  Uiso   1.00
H6437  H     0.92842   0.51152   0.80758   0.12311  Uiso   1.00
H6438  H     0.79138   0.68218   0.75541   0.12311  Uiso   0.00
C6439  C     0.77702   0.65674   0.79052   0.12311  Uiso   1.00
C6440  C     0.77517   0.69171   0.96983   0.12311  Uiso   1.00
C6441  C     0.78398   0.67833   0.75529   0.12311  Uiso   1.00
C6442  C     0.79878   0.68604   0.75552   0.12311  Uiso   1.00
C6443  C     0.82082   0.65868   0.77869   0.12311  Uiso   1.00
C6444  C     0.80711   0.65721   0.78420   0.12311  Uiso   1.00
N6445  N     0.76391   0.65677   0.77682   0.12311  Uiso   1.00
N6446  N     0.76276   0.67838   0.98314   0.12311  Uiso   1.00
H6447  H     0.78068   0.64389   0.81958   0.12311  Uiso   1.00
H6448  H     0.77730   0.70757   0.94085   0.12311  Uiso   1.00
H6449  H     0.82651   0.63898   0.79829   0.12311  Uiso   1.00
H6450  H     0.80342   0.63652   0.80758   0.12311  Uiso   1.00
H6451  H     0.83362   0.55718   0.86959   0.12311  Uiso   0.00
C6452  C     0.84798   0.53174   0.83448   0.12311  Uiso   1.00
C6453  C     0.84983   0.56671   0.90517   0.12311  Uiso   1.00
C6454  C     0.84102   0.55333   0.86971   0.12311  Uiso   1.00
C6455  C     0.82622   0.56104   0.86948   0.12311  Uiso   1.00
C6456  C     0.80418   0.53368   0.84631   0.12311  Uiso   1.00
C6457  C     0.81789   0.53221   0.84080   0.12311  Uiso   1.00
N6458  N     0.86109   0.53177   0.84818   0.12311  Uiso   1.00
N6459  N     0.86224   0.55338   0.89186   0.12311  Uiso   1.00
H6460  H     0.84432   0.51889   0.80542   0.12311  Uiso   1.00
H6461  H     0.84770   0.58257   0.93415   0.12311  Uiso   1.00
H6462  H     0.79849   0.51398   0.82671   0.12311  Uiso   1.00
H6463  H     0.82158   0.51152   0.81742   0.12311  Uiso   1.00
H6464  H     0.95862   0.68218   0.86959   0.12311  Uiso   0.00
C6465  C     0.97298   0.65674   0.83448   0.12311  Uiso   1.00
C6466  C     0.97483   0.69171   0.90517   0.12311  Uiso   1.00
C6467  C     0.96602   0.67833   0.86971   0.12311  Uiso   1.00
C6468  C     0.95122   0.68604   0.86948   0.12311  Uiso   1.00
C6469  C     0.92918   0.65868   0.84631   0.12311  Uiso   1.00
C6470  C     0.94289   0.65721   0.84080   0.12311  Uiso   1.00
N6471  N     0.98609   0.65677   0.84818   0.12311  Uiso   1.00
N6472  N     0.98724   0.67838   0.89186   0.12311  Uiso   1.00
H6473  H     0.96932   0.64389   0.80542   0.12311  Uiso   1.00
H6474  H     0.97270   0.70757   0.93415   0.12311  Uiso   1.00
H6475  H     0.92349   0.63898   0.82671   0.12311  Uiso   1.00
H6476  H     0.94658   0.63652   0.81742   0.12311  Uiso   1.00
Fe6477 Fe    0.75000   0.61461   0.81250   0.12311  Uiso   1.00
Fe6478 Fe    0.87500   0.73961   0.81250   0.12311  Uiso   1.00
Fe6479 Fe    0.75000   0.63539   0.93750   0.12311  Uiso   1.00
Fe6480 Fe    0.87500   0.51039   0.93750   0.12311  Uiso   1.00
H6481  H     0.08362   0.94282   0.99459   0.12311  Uiso   0.00
C6482  C     0.09798   0.96826   0.95948   0.12311  Uiso   1.00
C6483  C     0.09983   0.93329   0.78017   0.12311  Uiso   1.00
C6484  C     0.09102   0.94667   0.99471   0.12311  Uiso   1.00
C6485  C     0.07622   0.93896   0.99448   0.12311  Uiso   1.00
C6486  C     0.05418   0.96632   0.97131   0.12311  Uiso   1.00
C6487  C     0.06789   0.96779   0.96580   0.12311  Uiso   1.00
N6488  N     0.11109   0.96823   0.97318   0.12311  Uiso   1.00
N6489  N     0.11224   0.94662   0.76686   0.12311  Uiso   1.00
H6490  H     0.09432   0.98111   0.93042   0.12311  Uiso   1.00
H6491  H     0.09770   0.91743   0.80915   0.12311  Uiso   1.00
H6492  H     0.04849   0.98602   0.95171   0.12311  Uiso   1.00
H6493  H     0.07158   0.98848   0.94242   0.12311  Uiso   1.00
H6494  H     0.20862   0.81782   0.99459   0.12311  Uiso   0.00
C6495  C     0.22298   0.84326   0.95948   0.12311  Uiso   1.00
C6496  C     0.22483   0.80829   0.78017   0.12311  Uiso   1.00
C6497  C     0.21602   0.82167   0.99471   0.12311  Uiso   1.00
C6498  C     0.20122   0.81396   0.99448   0.12311  Uiso   1.00
C6499  C     0.17918   0.84132   0.97131   0.12311  Uiso   1.00
C6500  C     0.19289   0.84279   0.96580   0.12311  Uiso   1.00
N6501  N     0.23609   0.84323   0.97318   0.12311  Uiso   1.00
N6502  N     0.23724   0.82162   0.76686   0.12311  Uiso   1.00
H6503  H     0.21932   0.85611   0.93042   0.12311  Uiso   1.00
H6504  H     0.22270   0.79243   0.80915   0.12311  Uiso   1.00
H6505  H     0.17349   0.86102   0.95171   0.12311  Uiso   1.00
H6506  H     0.19658   0.86348   0.94242   0.12311  Uiso   1.00
H6507  H     0.16638   0.94282   0.88041   0.12311  Uiso   0.00
C6508  C     0.15202   0.96826   0.91552   0.12311  Uiso   1.00
C6509  C     0.15017   0.93329   0.84483   0.12311  Uiso   1.00
C6510  C     0.15898   0.94667   0.88029   0.12311  Uiso   1.00
C6511  C     0.17378   0.93896   0.88052   0.12311  Uiso   1.00
C6512  C     0.19582   0.96632   0.90369   0.12311  Uiso   1.00
C6513  C     0.18211   0.96779   0.90920   0.12311  Uiso   1.00
N6514  N     0.13891   0.96823   0.90182   0.12311  Uiso   1.00
N6515  N     0.13776   0.94662   0.85814   0.12311  Uiso   1.00
H6516  H     0.15568   0.98111   0.94458   0.12311  Uiso   1.00
H6517  H     0.15230   0.91743   0.81585   0.12311  Uiso   1.00
H6518  H     0.20151   0.98602   0.92329   0.12311  Uiso   1.00
H6519  H     0.17842   0.98848   0.93258   0.12311  Uiso   1.00
H6520  H     0.04138   0.81782   0.88041   0.12311  Uiso   0.00
C6521  C     0.02702   0.84326   0.91552   0.12311  Uiso   1.00
C6522  C     0.02517   0.80829   0.84483   0.12311  Uiso   1.00
C6523  C     0.03398   0.82167   0.88029   0.12311  Uiso   1.00
C6524  C     0.04878   0.81396   0.88052   0.12311  Uiso   1.00
C6525  C     0.07082   0.84132   0.90369   0.12311  Uiso   1.00
C6526  C     0.05711   0.84279   0.90920   0.12311  Uiso   1.00
N6527  N     0.01391   0.84323   0.90182   0.12311  Uiso   1.00
N6528  N     0.01276   0.82162   0.85814   0.12311  Uiso   1.00
H6529  H     0.03068   0.85611   0.94458   0.12311  Uiso   1.00
H6530  H     0.02730   0.79243   0.81585   0.12311  Uiso   1.00
H6531  H     0.07651   0.86102   0.92329   0.12311  Uiso   1.00
H6532  H     0.05342   0.86348   0.93258   0.12311  Uiso   1.00
H6533  H     0.16638   0.80718   0.75541   0.12311  Uiso   0.00
C6534  C     0.15202   0.78174   0.79052   0.12311  Uiso   1.00
C6535  C     0.15017   0.81671   0.96983   0.12311  Uiso   1.00
C6536  C     0.15898   0.80333   0.75529   0.12311  Uiso   1.00
C6537  C     0.17378   0.81104   0.75552   0.12311  Uiso   1.00
C6538  C     0.19582   0.78368   0.77869   0.12311  Uiso   1.00
C6539  C     0.18211   0.78221   0.78420   0.12311  Uiso   1.00
N6540  N     0.13891   0.78177   0.77682   0.12311  Uiso   1.00
N6541  N     0.13776   0.80338   0.98314   0.12311  Uiso   1.00
H6542  H     0.15568   0.76889   0.81958   0.12311  Uiso   1.00
H6543  H     0.15230   0.83257   0.94085   0.12311  Uiso   1.00
H6544  H     0.20151   0.76398   0.79829   0.12311  Uiso   1.00
H6545  H     0.17842   0.76152   0.80758   0.12311  Uiso   1.00
H6546  H     0.04138   0.93218   0.75541   0.12311  Uiso   0.00
C6547  C     0.02702   0.90674   0.79052   0.12311  Uiso   1.00
C6548  C     0.02517   0.94171   0.96983   0.12311  Uiso   1.00
C6549  C     0.03398   0.92833   0.75529   0.12311  Uiso   1.00
C6550  C     0.04878   0.93604   0.75552   0.12311  Uiso   1.00
C6551  C     0.07082   0.90868   0.77869   0.12311  Uiso   1.00
C6552  C     0.05711   0.90721   0.78420   0.12311  Uiso   1.00
N6553  N     0.01391   0.90677   0.77682   0.12311  Uiso   1.00
N6554  N     0.01276   0.92838   0.98314   0.12311  Uiso   1.00
H6555  H     0.03068   0.89389   0.81958   0.12311  Uiso   1.00
H6556  H     0.02730   0.95757   0.94085   0.12311  Uiso   1.00
H6557  H     0.07651   0.88898   0.79829   0.12311  Uiso   1.00
H6558  H     0.05342   0.88652   0.80758   0.12311  Uiso   1.00
H6559  H     0.08362   0.80718   0.86959   0.12311  Uiso   0.00
C6560  C     0.09798   0.78174   0.83448   0.12311  Uiso   1.00
C6561  C     0.09983   0.81671   0.90517   0.12311  Uiso   1.00
C6562  C     0.09102   0.80333   0.86971   0.12311  Uiso   1.00
C6563  C     0.07622   0.81104   0.86948   0.12311  Uiso   1.00
C6564  C     0.05418   0.78368   0.84631   0.12311  Uiso   1.00
C6565  C     0.06789   0.78221   0.84080   0.12311  Uiso   1.00
N6566  N     0.11109   0.78177   0.84818   0.12311  Uiso   1.00
N6567  N     0.11224   0.80338   0.89186   0.12311  Uiso   1.00
H6568  H     0.09432   0.76889   0.80542   0.12311  Uiso   1.00
H6569  H     0.09770   0.83257   0.93415   0.12311  Uiso   1.00
H6570  H     0.04849   0.76398   0.82671   0.12311  Uiso   1.00
H6571  H     0.07158   0.76152   0.81742   0.12311  Uiso   1.00
H6572  H     0.20862   0.93218   0.86959   0.12311  Uiso   0.00
C6573  C     0.22298   0.90674   0.83448   0.12311  Uiso   1.00
C6574  C     0.22483   0.94171   0.90517   0.12311  Uiso   1.00
C6575  C     0.21602   0.92833   0.86971   0.12311  Uiso   1.00
C6576  C     0.20122   0.93604   0.86948   0.12311  Uiso   1.00
C6577  C     0.17918   0.90868   0.84631   0.12311  Uiso   1.00
C6578  C     0.19289   0.90721   0.84080   0.12311  Uiso   1.00
N6579  N     0.23609   0.90677   0.84818   0.12311  Uiso   1.00
N6580  N     0.23724   0.92838   0.89186   0.12311  Uiso   1.00
H6581  H     0.21932   0.89389   0.80542   0.12311  Uiso   1.00
H6582  H     0.22270   0.95757   0.93415   0.12311  Uiso   1.00
H6583  H     0.17349   0.88898   0.82671   0.12311  Uiso   1.00
H6584  H     0.19658   0.88652   0.81742   0.12311  Uiso   1.00
Fe6585 Fe    0.00000   0.86461   0.81250   0.12311  Uiso   1.00
Fe6586 Fe    0.12500   0.98961   0.81250   0.12311  Uiso   1.00
Fe6587 Fe    0.00000   0.88539   0.93750   0.12311  Uiso   1.00
Fe6588 Fe    0.12500   0.76039   0.93750   0.12311  Uiso   1.00
H6589  H     0.33362   0.94282   0.99459   0.12311  Uiso   0.00
C6590  C     0.34798   0.96826   0.95948   0.12311  Uiso   1.00
C6591  C     0.34983   0.93329   0.78017   0.12311  Uiso   1.00
C6592  C     0.34102   0.94667   0.99471   0.12311  Uiso   1.00
C6593  C     0.32622   0.93896   0.99448   0.12311  Uiso   1.00
C6594  C     0.30418   0.96632   0.97131   0.12311  Uiso   1.00
C6595  C     0.31789   0.96779   0.96580   0.12311  Uiso   1.00
N6596  N     0.36109   0.96823   0.97318   0.12311  Uiso   1.00
N6597  N     0.36224   0.94662   0.76686   0.12311  Uiso   1.00
H6598  H     0.34432   0.98111   0.93042   0.12311  Uiso   1.00
H6599  H     0.34770   0.91743   0.80915   0.12311  Uiso   1.00
H6600  H     0.29849   0.98602   0.95171   0.12311  Uiso   1.00
H6601  H     0.32158   0.98848   0.94242   0.12311  Uiso   1.00
H6602  H     0.45862   0.81782   0.99459   0.12311  Uiso   0.00
C6603  C     0.47298   0.84326   0.95948   0.12311  Uiso   1.00
C6604  C     0.47483   0.80829   0.78017   0.12311  Uiso   1.00
C6605  C     0.46602   0.82167   0.99471   0.12311  Uiso   1.00
C6606  C     0.45122   0.81396   0.99448   0.12311  Uiso   1.00
C6607  C     0.42918   0.84132   0.97131   0.12311  Uiso   1.00
C6608  C     0.44289   0.84279   0.96580   0.12311  Uiso   1.00
N6609  N     0.48609   0.84323   0.97318   0.12311  Uiso   1.00
N6610  N     0.48724   0.82162   0.76686   0.12311  Uiso   1.00
H6611  H     0.46932   0.85611   0.93042   0.12311  Uiso   1.00
H6612  H     0.47270   0.79243   0.80915   0.12311  Uiso   1.00
H6613  H     0.42349   0.86102   0.95171   0.12311  Uiso   1.00
H6614  H     0.44658   0.86348   0.94242   0.12311  Uiso   1.00
H6615  H     0.41638   0.94282   0.88041   0.12311  Uiso   0.00
C6616  C     0.40202   0.96826   0.91552   0.12311  Uiso   1.00
C6617  C     0.40017   0.93329   0.84483   0.12311  Uiso   1.00
C6618  C     0.40898   0.94667   0.88029   0.12311  Uiso   1.00
C6619  C     0.42378   0.93896   0.88052   0.12311  Uiso   1.00
C6620  C     0.44582   0.96632   0.90369   0.12311  Uiso   1.00
C6621  C     0.43211   0.96779   0.90920   0.12311  Uiso   1.00
N6622  N     0.38891   0.96823   0.90182   0.12311  Uiso   1.00
N6623  N     0.38776   0.94662   0.85814   0.12311  Uiso   1.00
H6624  H     0.40568   0.98111   0.94458   0.12311  Uiso   1.00
H6625  H     0.40230   0.91743   0.81585   0.12311  Uiso   1.00
H6626  H     0.45151   0.98602   0.92329   0.12311  Uiso   1.00
H6627  H     0.42842   0.98848   0.93258   0.12311  Uiso   1.00
H6628  H     0.29138   0.81782   0.88041   0.12311  Uiso   0.00
C6629  C     0.27702   0.84326   0.91552   0.12311  Uiso   1.00
C6630  C     0.27517   0.80829   0.84483   0.12311  Uiso   1.00
C6631  C     0.28398   0.82167   0.88029   0.12311  Uiso   1.00
C6632  C     0.29878   0.81396   0.88052   0.12311  Uiso   1.00
C6633  C     0.32082   0.84132   0.90369   0.12311  Uiso   1.00
C6634  C     0.30711   0.84279   0.90920   0.12311  Uiso   1.00
N6635  N     0.26391   0.84323   0.90182   0.12311  Uiso   1.00
N6636  N     0.26276   0.82162   0.85814   0.12311  Uiso   1.00
H6637  H     0.28068   0.85611   0.94458   0.12311  Uiso   1.00
H6638  H     0.27730   0.79243   0.81585   0.12311  Uiso   1.00
H6639  H     0.32651   0.86102   0.92329   0.12311  Uiso   1.00
H6640  H     0.30342   0.86348   0.93258   0.12311  Uiso   1.00
H6641  H     0.41638   0.80718   0.75541   0.12311  Uiso   0.00
C6642  C     0.40202   0.78174   0.79052   0.12311  Uiso   1.00
C6643  C     0.40017   0.81671   0.96983   0.12311  Uiso   1.00
C6644  C     0.40898   0.80333   0.75529   0.12311  Uiso   1.00
C6645  C     0.42378   0.81104   0.75552   0.12311  Uiso   1.00
C6646  C     0.44582   0.78368   0.77869   0.12311  Uiso   1.00
C6647  C     0.43211   0.78221   0.78420   0.12311  Uiso   1.00
N6648  N     0.38891   0.78177   0.77682   0.12311  Uiso   1.00
N6649  N     0.38776   0.80338   0.98314   0.12311  Uiso   1.00
H6650  H     0.40568   0.76889   0.81958   0.12311  Uiso   1.00
H6651  H     0.40230   0.83257   0.94085   0.12311  Uiso   1.00
H6652  H     0.45151   0.76398   0.79829   0.12311  Uiso   1.00
H6653  H     0.42842   0.76152   0.80758   0.12311  Uiso   1.00
H6654  H     0.29138   0.93218   0.75541   0.12311  Uiso   0.00
C6655  C     0.27702   0.90674   0.79052   0.12311  Uiso   1.00
C6656  C     0.27517   0.94171   0.96983   0.12311  Uiso   1.00
C6657  C     0.28398   0.92833   0.75529   0.12311  Uiso   1.00
C6658  C     0.29878   0.93604   0.75552   0.12311  Uiso   1.00
C6659  C     0.32082   0.90868   0.77869   0.12311  Uiso   1.00
C6660  C     0.30711   0.90721   0.78420   0.12311  Uiso   1.00
N6661  N     0.26391   0.90677   0.77682   0.12311  Uiso   1.00
N6662  N     0.26276   0.92838   0.98314   0.12311  Uiso   1.00
H6663  H     0.28068   0.89389   0.81958   0.12311  Uiso   1.00
H6664  H     0.27730   0.95757   0.94085   0.12311  Uiso   1.00
H6665  H     0.32651   0.88898   0.79829   0.12311  Uiso   1.00
H6666  H     0.30342   0.88652   0.80758   0.12311  Uiso   1.00
H6667  H     0.33362   0.80718   0.86959   0.12311  Uiso   0.00
C6668  C     0.34798   0.78174   0.83448   0.12311  Uiso   1.00
C6669  C     0.34983   0.81671   0.90517   0.12311  Uiso   1.00
C6670  C     0.34102   0.80333   0.86971   0.12311  Uiso   1.00
C6671  C     0.32622   0.81104   0.86948   0.12311  Uiso   1.00
C6672  C     0.30418   0.78368   0.84631   0.12311  Uiso   1.00
C6673  C     0.31789   0.78221   0.84080   0.12311  Uiso   1.00
N6674  N     0.36109   0.78177   0.84818   0.12311  Uiso   1.00
N6675  N     0.36224   0.80338   0.89186   0.12311  Uiso   1.00
H6676  H     0.34432   0.76889   0.80542   0.12311  Uiso   1.00
H6677  H     0.34770   0.83257   0.93415   0.12311  Uiso   1.00
H6678  H     0.29849   0.76398   0.82671   0.12311  Uiso   1.00
H6679  H     0.32158   0.76152   0.81742   0.12311  Uiso   1.00
H6680  H     0.45862   0.93218   0.86959   0.12311  Uiso   0.00
C6681  C     0.47298   0.90674   0.83448   0.12311  Uiso   1.00
C6682  C     0.47483   0.94171   0.90517   0.12311  Uiso   1.00
C6683  C     0.46602   0.92833   0.86971   0.12311  Uiso   1.00
C6684  C     0.45122   0.93604   0.86948   0.12311  Uiso   1.00
C6685  C     0.42918   0.90868   0.84631   0.12311  Uiso   1.00
C6686  C     0.44289   0.90721   0.84080   0.12311  Uiso   1.00
N6687  N     0.48609   0.90677   0.84818   0.12311  Uiso   1.00
N6688  N     0.48724   0.92838   0.89186   0.12311  Uiso   1.00
H6689  H     0.46932   0.89389   0.80542   0.12311  Uiso   1.00
H6690  H     0.47270   0.95757   0.93415   0.12311  Uiso   1.00
H6691  H     0.42349   0.88898   0.82671   0.12311  Uiso   1.00
H6692  H     0.44658   0.88652   0.81742   0.12311  Uiso   1.00
Fe6693 Fe    0.25000   0.86461   0.81250   0.12311  Uiso   1.00
Fe6694 Fe    0.37500   0.98961   0.81250   0.12311  Uiso   1.00
Fe6695 Fe    0.25000   0.88539   0.93750   0.12311  Uiso   1.00
Fe6696 Fe    0.37500   0.76039   0.93750   0.12311  Uiso   1.00
H6697  H     0.58362   0.94282   0.99459   0.12311  Uiso   0.00
C6698  C     0.59798   0.96826   0.95948   0.12311  Uiso   1.00
C6699  C     0.59983   0.93329   0.78017   0.12311  Uiso   1.00
C6700  C     0.59102   0.94667   0.99471   0.12311  Uiso   1.00
C6701  C     0.57622   0.93896   0.99448   0.12311  Uiso   1.00
C6702  C     0.55418   0.96632   0.97131   0.12311  Uiso   1.00
C6703  C     0.56789   0.96779   0.96580   0.12311  Uiso   1.00
N6704  N     0.61109   0.96823   0.97318   0.12311  Uiso   1.00
N6705  N     0.61224   0.94662   0.76686   0.12311  Uiso   1.00
H6706  H     0.59432   0.98111   0.93042   0.12311  Uiso   1.00
H6707  H     0.59770   0.91743   0.80915   0.12311  Uiso   1.00
H6708  H     0.54849   0.98602   0.95171   0.12311  Uiso   1.00
H6709  H     0.57158   0.98848   0.94242   0.12311  Uiso   1.00
H6710  H     0.70862   0.81782   0.99459   0.12311  Uiso   0.00
C6711  C     0.72298   0.84326   0.95948   0.12311  Uiso   1.00
C6712  C     0.72483   0.80829   0.78017   0.12311  Uiso   1.00
C6713  C     0.71602   0.82167   0.99471   0.12311  Uiso   1.00
C6714  C     0.70122   0.81396   0.99448   0.12311  Uiso   1.00
C6715  C     0.67918   0.84132   0.97131   0.12311  Uiso   1.00
C6716  C     0.69289   0.84279   0.96580   0.12311  Uiso   1.00
N6717  N     0.73609   0.84323   0.97318   0.12311  Uiso   1.00
N6718  N     0.73724   0.82162   0.76686   0.12311  Uiso   1.00
H6719  H     0.71932   0.85611   0.93042   0.12311  Uiso   1.00
H6720  H     0.72270   0.79243   0.80915   0.12311  Uiso   1.00
H6721  H     0.67349   0.86102   0.95171   0.12311  Uiso   1.00
H6722  H     0.69658   0.86348   0.94242   0.12311  Uiso   1.00
H6723  H     0.66638   0.94282   0.88041   0.12311  Uiso   0.00
C6724  C     0.65202   0.96826   0.91552   0.12311  Uiso   1.00
C6725  C     0.65017   0.93329   0.84483   0.12311  Uiso   1.00
C6726  C     0.65898   0.94667   0.88029   0.12311  Uiso   1.00
C6727  C     0.67378   0.93896   0.88052   0.12311  Uiso   1.00
C6728  C     0.69582   0.96632   0.90369   0.12311  Uiso   1.00
C6729  C     0.68211   0.96779   0.90920   0.12311  Uiso   1.00
N6730  N     0.63891   0.96823   0.90182   0.12311  Uiso   1.00
N6731  N     0.63776   0.94662   0.85814   0.12311  Uiso   1.00
H6732  H     0.65568   0.98111   0.94458   0.12311  Uiso   1.00
H6733  H     0.65230   0.91743   0.81585   0.12311  Uiso   1.00
H6734  H     0.70151   0.98602   0.92329   0.12311  Uiso   1.00
H6735  H     0.67842   0.98848   0.93258   0.12311  Uiso   1.00
H6736  H     0.54138   0.81782   0.88041   0.12311  Uiso   0.00
C6737  C     0.52702   0.84326   0.91552   0.12311  Uiso   1.00
C6738  C     0.52517   0.80829   0.84483   0.12311  Uiso   1.00
C6739  C     0.53398   0.82167   0.88029   0.12311  Uiso   1.00
C6740  C     0.54878   0.81396   0.88052   0.12311  Uiso   1.00
C6741  C     0.57082   0.84132   0.90369   0.12311  Uiso   1.00
C6742  C     0.55711   0.84279   0.90920   0.12311  Uiso   1.00
N6743  N     0.51391   0.84323   0.90182   0.12311  Uiso   1.00
N6744  N     0.51276   0.82162   0.85814   0.12311  Uiso   1.00
H6745  H     0.53068   0.85611   0.94458   0.12311  Uiso   1.00
H6746  H     0.52730   0.79243   0.81585   0.12311  Uiso   1.00
H6747  H     0.57651   0.86102   0.92329   0.12311  Uiso   1.00
H6748  H     0.55342   0.86348   0.93258   0.12311  Uiso   1.00
H6749  H     0.66638   0.80718   0.75541   0.12311  Uiso   0.00
C6750  C     0.65202   0.78174   0.79052   0.12311  Uiso   1.00
C6751  C     0.65017   0.81671   0.96983   0.12311  Uiso   1.00
C6752  C     0.65898   0.80333   0.75529   0.12311  Uiso   1.00
C6753  C     0.67378   0.81104   0.75552   0.12311  Uiso   1.00
C6754  C     0.69582   0.78368   0.77869   0.12311  Uiso   1.00
C6755  C     0.68211   0.78221   0.78420   0.12311  Uiso   1.00
N6756  N     0.63891   0.78177   0.77682   0.12311  Uiso   1.00
N6757  N     0.63776   0.80338   0.98314   0.12311  Uiso   1.00
H6758  H     0.65568   0.76889   0.81958   0.12311  Uiso   1.00
H6759  H     0.65230   0.83257   0.94085   0.12311  Uiso   1.00
H6760  H     0.70151   0.76398   0.79829   0.12311  Uiso   1.00
H6761  H     0.67842   0.76152   0.80758   0.12311  Uiso   1.00
H6762  H     0.54138   0.93218   0.75541   0.12311  Uiso   0.00
C6763  C     0.52702   0.90674   0.79052   0.12311  Uiso   1.00
C6764  C     0.52517   0.94171   0.96983   0.12311  Uiso   1.00
C6765  C     0.53398   0.92833   0.75529   0.12311  Uiso   1.00
C6766  C     0.54878   0.93604   0.75552   0.12311  Uiso   1.00
C6767  C     0.57082   0.90868   0.77869   0.12311  Uiso   1.00
C6768  C     0.55711   0.90721   0.78420   0.12311  Uiso   1.00
N6769  N     0.51391   0.90677   0.77682   0.12311  Uiso   1.00
N6770  N     0.51276   0.92838   0.98314   0.12311  Uiso   1.00
H6771  H     0.53068   0.89389   0.81958   0.12311  Uiso   1.00
H6772  H     0.52730   0.95757   0.94085   0.12311  Uiso   1.00
H6773  H     0.57651   0.88898   0.79829   0.12311  Uiso   1.00
H6774  H     0.55342   0.88652   0.80758   0.12311  Uiso   1.00
H6775  H     0.58362   0.80718   0.86959   0.12311  Uiso   0.00
C6776  C     0.59798   0.78174   0.83448   0.12311  Uiso   1.00
C6777  C     0.59983   0.81671   0.90517   0.12311  Uiso   1.00
C6778  C     0.59102   0.80333   0.86971   0.12311  Uiso   1.00
C6779  C     0.57622   0.81104   0.86948   0.12311  Uiso   1.00
C6780  C     0.55418   0.78368   0.84631   0.12311  Uiso   1.00
C6781  C     0.56789   0.78221   0.84080   0.12311  Uiso   1.00
N6782  N     0.61109   0.78177   0.84818   0.12311  Uiso   1.00
N6783  N     0.61224   0.80338   0.89186   0.12311  Uiso   1.00
H6784  H     0.59432   0.76889   0.80542   0.12311  Uiso   1.00
H6785  H     0.59770   0.83257   0.93415   0.12311  Uiso   1.00
H6786  H     0.54849   0.76398   0.82671   0.12311  Uiso   1.00
H6787  H     0.57158   0.76152   0.81742   0.12311  Uiso   1.00
H6788  H     0.70862   0.93218   0.86959   0.12311  Uiso   0.00
C6789  C     0.72298   0.90674   0.83448   0.12311  Uiso   1.00
C6790  C     0.72483   0.94171   0.90517   0.12311  Uiso   1.00
C6791  C     0.71602   0.92833   0.86971   0.12311  Uiso   1.00
C6792  C     0.70122   0.93604   0.86948   0.12311  Uiso   1.00
C6793  C     0.67918   0.90868   0.84631   0.12311  Uiso   1.00
C6794  C     0.69289   0.90721   0.84080   0.12311  Uiso   1.00
N6795  N     0.73609   0.90677   0.84818   0.12311  Uiso   1.00
N6796  N     0.73724   0.92838   0.89186   0.12311  Uiso   1.00
H6797  H     0.71932   0.89389   0.80542   0.12311  Uiso   1.00
H6798  H     0.72270   0.95757   0.93415   0.12311  Uiso   1.00
H6799  H     0.67349   0.88898   0.82671   0.12311  Uiso   1.00
H6800  H     0.69658   0.88652   0.81742   0.12311  Uiso   1.00
Fe6801 Fe    0.50000   0.86461   0.81250   0.12311  Uiso   1.00
Fe6802 Fe    0.62500   0.98961   0.81250   0.12311  Uiso   1.00
Fe6803 Fe    0.50000   0.88539   0.93750   0.12311  Uiso   1.00
Fe6804 Fe    0.62500   0.76039   0.93750   0.12311  Uiso   1.00
H6805  H     0.83362   0.94282   0.99459   0.12311  Uiso   0.00
C6806  C     0.84798   0.96826   0.95948   0.12311  Uiso   1.00
C6807  C     0.84983   0.93329   0.78017   0.12311  Uiso   1.00
C6808  C     0.84102   0.94667   0.99471   0.12311  Uiso   1.00
C6809  C     0.82622   0.93896   0.99448   0.12311  Uiso   1.00
C6810  C     0.80418   0.96632   0.97131   0.12311  Uiso   1.00
C6811  C     0.81789   0.96779   0.96580   0.12311  Uiso   1.00
N6812  N     0.86109   0.96823   0.97318   0.12311  Uiso   1.00
N6813  N     0.86224   0.94662   0.76686   0.12311  Uiso   1.00
H6814  H     0.84432   0.98111   0.93042   0.12311  Uiso   1.00
H6815  H     0.84770   0.91743   0.80915   0.12311  Uiso   1.00
H6816  H     0.79849   0.98602   0.95171   0.12311  Uiso   1.00
H6817  H     0.82158   0.98848   0.94242   0.12311  Uiso   1.00
H6818  H     0.95862   0.81782   0.99459   0.12311  Uiso   0.00
C6819  C     0.97298   0.84326   0.95948   0.12311  Uiso   1.00
C6820  C     0.97483   0.80829   0.78017   0.12311  Uiso   1.00
C6821  C     0.96602   0.82167   0.99471   0.12311  Uiso   1.00
C6822  C     0.95122   0.81396   0.99448   0.12311  Uiso   1.00
C6823  C     0.92918   0.84132   0.97131   0.12311  Uiso   1.00
C6824  C     0.94289   0.84279   0.96580   0.12311  Uiso   1.00
N6825  N     0.98609   0.84323   0.97318   0.12311  Uiso   1.00
N6826  N     0.98724   0.82162   0.76686   0.12311  Uiso   1.00
H6827  H     0.96932   0.85611   0.93042   0.12311  Uiso   1.00
H6828  H     0.97270   0.79243   0.80915   0.12311  Uiso   1.00
H6829  H     0.92349   0.86102   0.95171   0.12311  Uiso   1.00
H6830  H     0.94658   0.86348   0.94242   0.12311  Uiso   1.00
H6831  H     0.91638   0.94282   0.88041   0.12311  Uiso   0.00
C6832  C     0.90202   0.96826   0.91552   0.12311  Uiso   1.00
C6833  C     0.90017   0.93329   0.84483   0.12311  Uiso   1.00
C6834  C     0.90898   0.94667   0.88029   0.12311  Uiso   1.00
C6835  C     0.92378   0.93896   0.88052   0.12311  Uiso   1.00
C6836  C     0.94582   0.96632   0.90369   0.12311  Uiso   1.00
C6837  C     0.93211   0.96779   0.90920   0.12311  Uiso   1.00
N6838  N     0.88891   0.96823   0.90182   0.12311  Uiso   1.00
N6839  N     0.88776   0.94662   0.85814   0.12311  Uiso   1.00
H6840  H     0.90568   0.98111   0.94458   0.12311  Uiso   1.00
H6841  H     0.90230   0.91743   0.81585   0.12311  Uiso   1.00
H6842  H     0.95151   0.98602   0.92329   0.12311  Uiso   1.00
H6843  H     0.92842   0.98848   0.93258   0.12311  Uiso   1.00
H6844  H     0.79138   0.81782   0.88041   0.12311  Uiso   0.00
C6845  C     0.77702   0.84326   0.91552   0.12311  Uiso   1.00
C6846  C     0.77517   0.80829   0.84483   0.12311  Uiso   1.00
C6847  C     0.78398   0.82167   0.88029   0.12311  Uiso   1.00
C6848  C     0.79878   0.81396   0.88052   0.12311  Uiso   1.00
C6849  C     0.82082   0.84132   0.90369   0.12311  Uiso   1.00
C6850  C     0.80711   0.84279   0.90920   0.12311  Uiso   1.00
N6851  N     0.76391   0.84323   0.90182   0.12311  Uiso   1.00
N6852  N     0.76276   0.82162   0.85814   0.12311  Uiso   1.00
H6853  H     0.78068   0.85611   0.94458   0.12311  Uiso   1.00
H6854  H     0.77730   0.79243   0.81585   0.12311  Uiso   1.00
H6855  H     0.82651   0.86102   0.92329   0.12311  Uiso   1.00
H6856  H     0.80342   0.86348   0.93258   0.12311  Uiso   1.00
H6857  H     0.91638   0.80718   0.75541   0.12311  Uiso   0.00
C6858  C     0.90202   0.78174   0.79052   0.12311  Uiso   1.00
C6859  C     0.90017   0.81671   0.96983   0.12311  Uiso   1.00
C6860  C     0.90898   0.80333   0.75529   0.12311  Uiso   1.00
C6861  C     0.92378   0.81104   0.75552   0.12311  Uiso   1.00
C6862  C     0.94582   0.78368   0.77869   0.12311  Uiso   1.00
C6863  C     0.93211   0.78221   0.78420   0.12311  Uiso   1.00
N6864  N     0.88891   0.78177   0.77682   0.12311  Uiso   1.00
N6865  N     0.88776   0.80338   0.98314   0.12311  Uiso   1.00
H6866  H     0.90568   0.76889   0.81958   0.12311  Uiso   1.00
H6867  H     0.90230   0.83257   0.94085   0.12311  Uiso   1.00
H6868  H     0.95151   0.76398   0.79829   0.12311  Uiso   1.00
H6869  H     0.92842   0.76152   0.80758   0.12311  Uiso   1.00
H6870  H     0.79138   0.93218   0.75541   0.12311  Uiso   0.00
C6871  C     0.77702   0.90674   0.79052   0.12311  Uiso   1.00
C6872  C     0.77517   0.94171   0.96983   0.12311  Uiso   1.00
C6873  C     0.78398   0.92833   0.75529   0.12311  Uiso   1.00
C6874  C     0.79878   0.93604   0.75552   0.12311  Uiso   1.00
C6875  C     0.82082   0.90868   0.77869   0.12311  Uiso   1.00
C6876  C     0.80711   0.90721   0.78420   0.12311  Uiso   1.00
N6877  N     0.76391   0.90677   0.77682   0.12311  Uiso   1.00
N6878  N     0.76276   0.92838   0.98314   0.12311  Uiso   1.00
H6879  H     0.78068   0.89389   0.81958   0.12311  Uiso   1.00
H6880  H     0.77730   0.95757   0.94085   0.12311  Uiso   1.00
H6881  H     0.82651   0.88898   0.79829   0.12311  Uiso   1.00
H6882  H     0.80342   0.88652   0.80758   0.12311  Uiso   1.00
H6883  H     0.83362   0.80718   0.86959   0.12311  Uiso   0.00
C6884  C     0.84798   0.78174   0.83448   0.12311  Uiso   1.00
C6885  C     0.84983   0.81671   0.90517   0.12311  Uiso   1.00
C6886  C     0.84102   0.80333   0.86971   0.12311  Uiso   1.00
C6887  C     0.82622   0.81104   0.86948   0.12311  Uiso   1.00
C6888  C     0.80418   0.78368   0.84631   0.12311  Uiso   1.00
C6889  C     0.81789   0.78221   0.84080   0.12311  Uiso   1.00
N6890  N     0.86109   0.78177   0.84818   0.12311  Uiso   1.00
N6891  N     0.86224   0.80338   0.89186   0.12311  Uiso   1.00
H6892  H     0.84432   0.76889   0.80542   0.12311  Uiso   1.00
H6893  H     0.84770   0.83257   0.93415   0.12311  Uiso   1.00
H6894  H     0.79849   0.76398   0.82671   0.12311  Uiso   1.00
H6895  H     0.82158   0.76152   0.81742   0.12311  Uiso   1.00
H6896  H     0.95862   0.93218   0.86959   0.12311  Uiso   0.00
C6897  C     0.97298   0.90674   0.83448   0.12311  Uiso   1.00
C6898  C     0.97483   0.94171   0.90517   0.12311  Uiso   1.00
C6899  C     0.96602   0.92833   0.86971   0.12311  Uiso   1.00
C6900  C     0.95122   0.93604   0.86948   0.12311  Uiso   1.00
C6901  C     0.92918   0.90868   0.84631   0.12311  Uiso   1.00
C6902  C     0.94289   0.90721   0.84080   0.12311  Uiso   1.00
N6903  N     0.98609   0.90677   0.84818   0.12311  Uiso   1.00
N6904  N     0.98724   0.92838   0.89186   0.12311  Uiso   1.00
H6905  H     0.96932   0.89389   0.80542   0.12311  Uiso   1.00
H6906  H     0.97270   0.95757   0.93415   0.12311  Uiso   1.00
H6907  H     0.92349   0.88898   0.82671   0.12311  Uiso   1.00
H6908  H     0.94658   0.88652   0.81742   0.12311  Uiso   1.00
Fe6909 Fe    0.75000   0.86461   0.81250   0.12311  Uiso   1.00
Fe6910 Fe    0.87500   0.98961   0.81250   0.12311  Uiso   1.00
Fe6911 Fe    0.75000   0.88539   0.93750   0.12311  Uiso   1.00
Fe6912 Fe    0.87500   0.76039   0.93750   0.12311  Uiso   1.00
loop_
_geom_bond_atom_site_label_1
_geom_bond_atom_site_label_2
_geom_bond_distance
_geom_bond_site_symmetry_2
_ccdc_geom_bond_type
H1     C4      0.750   .     S
H1     C5      0.750   .     S
C2     C4      1.360   .     S
C2     N8      1.360   .     D
C2     H10     0.950   .     S
C3     C5188   1.360   1_554 S
C3     N9      1.360   .     D
C3     H11     0.950   .     S
C4     C1731   1.360   .     S
C4     C5      1.500   .     S
C5     C7      1.390   .     S
C5     C1799   1.390   .     S
C6     C7      1.390   .     D
C6     H12     0.950   .     S
C6     C1798   1.390   .     S
C7     H13     0.950   .     S
N8     N1737   1.360   .     S
N8     Fe540   2.091   .     S
N9     N5192   1.360   1_554 S
N9     Fe106   2.139   .     S
H14    C17     0.750   .     S
H14    C18     0.750   .     S
C15    C17     1.360   .     S
C15    N21     1.360   .     D
C15    H23     0.950   .     S
C16    C5201   1.360   1_554 S
C16    N22     1.360   .     D
C16    H24     0.950   .     S
C17    C1744   1.360   .     S
C17    C18     1.500   .     S
C18    C20     1.390   .     S
C18    C1786   1.390   .     S
C19    C20     1.390   .     D
C19    H25     0.950   .     S
C19    C1785   1.390   .     S
C20    H26     0.950   .     S
N21    N1750   1.360   .     S
N21    Fe215   2.091   .     S
N22    N5205   1.360   1_554 S
N22    Fe213   2.139   .     S
H27    C30     0.750   .     S
H27    C31     0.750   .     S
C28    C30     1.360   .     S
C28    N34     1.360   .     D
C28    H36     0.950   .     S
C29    C30     1.360   .     S
C29    N35     1.360   .     D
C29    H37     0.950   .     S
C30    C31     1.500   .     S
C31    C33     1.390   .     S
C31    C97     1.390   .     S
C32    C33     1.390   .     D
C32    H38     0.950   .     S
C32    C96     1.390   .     S
C33    H39     0.950   .     S
N34    N35     1.360   .     S
N34    Fe540   2.091   .     S
N35    Fe106   2.139   .     S
H40    C43     0.750   .     S
H40    C44     0.750   .     S
C41    C43     1.360   .     S
C41    N47     1.360   .     D
C41    H49     0.950   .     S
C42    C43     1.360   .     S
C42    N48     1.360   .     D
C42    H50     0.950   .     S
C43    C44     1.500   .     S
C44    C46     1.390   .     S
C44    C84     1.390   .     S
C45    C46     1.390   .     D
C45    H51     0.950   .     S
C45    C83     1.390   .     S
C46    H52     0.950   .     S
N47    N48     1.360   .     S
N47    Fe107   2.091   .     S
N48    Fe105   2.139   .     S
H53    C56     0.750   .     S
H53    C57     0.750   .     S
C54    C56     1.360   .     S
C54    N60     1.360   .     D
C54    H62     0.950   .     S
C55    C1784   1.360   .     S
C55    N61     1.360   .     D
C55    H63     0.950   .     S
C56    C5239   1.360   1_554 S
C56    C57     1.500   .     S
C57    C59     1.390   .     S
C57    C5203   1.390   1_554 S
C58    C59     1.390   .     D
C58    H64     0.950   .     S
C58    C5202   1.390   1_554 S
C59    H65     0.950   .     S
N60    N5245   1.360   1_554 S
N60    Fe1402  2.091   1_545 S
N61    N1788   1.360   .     S
N61    Fe108   2.139   .     S
H66    C69     0.750   .     S
H66    C70     0.750   .     S
C67    C69     1.360   .     S
C67    N73     1.360   .     D
C67    H75     0.950   .     S
C68    C1797   1.360   .     S
C68    N74     1.360   .     D
C68    H76     0.950   .     S
C69    C5252   1.360   1_554 S
C69    C70     1.500   .     S
C70    C72     1.390   .     S
C70    C5190   1.390   1_554 S
C71    C72     1.390   .     D
C71    H77     0.950   .     S
C71    C5189   1.390   1_554 S
C72    H78     0.950   .     S
N73    N5258   1.360   1_554 S
N73    Fe105   2.091   .     S
N74    N1801   1.360   .     S
N74    Fe107   2.139   .     S
H79    C82     0.750   .     S
H79    C83     0.750   .     S
C80    C82     1.360   .     S
C80    N86     1.360   .     D
C80    H88     0.950   .     S
C81    C82     1.360   .     S
C81    N87     1.360   .     D
C81    H89     0.950   .     S
C82    C83     1.500   .     S
C83    C85     1.390   .     S
C84    C85     1.390   .     D
C84    H90     0.950   .     S
C85    H91     0.950   .     S
N86    N87     1.360   .     S
N86    Fe1402  2.091   1_545 S
N87    Fe108   2.139   .     S
H92    C95     0.750   .     S
H92    C96     0.750   .     S
C93    C95     1.360   .     S
C93    N99     1.360   .     D
C93    H101    0.950   .     S
C94    C95     1.360   .     S
C94    N100    1.360   .     D
C94    H102    0.950   .     S
C95    C96     1.500   .     S
C96    C98     1.390   .     S
C97    C98     1.390   .     D
C97    H103    0.950   .     S
C98    H104    0.950   .     S
N99    N100    1.360   .     S
N99    Fe213   2.091   .     S
N100   Fe215   2.139   .     S
Fe105  N423    2.091   1_455 S
Fe105  N346    2.139   1_455 S
Fe106  N492    2.091   .     S
Fe106  N518    2.091   .     S
Fe107  N345    2.091   1_455 S
Fe107  N424    2.139   1_455 S
Fe108  N1304   2.091   1_545 S
Fe108  N1330   2.091   1_545 S
H109   C112    0.750   .     S
H109   C113    0.750   .     S
C110   C112    1.360   .     S
C110   N116    1.360   .     D
C110   H118    0.950   .     S
C111   C5296   1.360   1_554 S
C111   N117    1.360   .     D
C111   H119    0.950   .     S
C112   C1839   1.360   .     S
C112   C113    1.500   .     S
C113   C115    1.390   .     S
C113   C1907   1.390   .     S
C114   C115    1.390   .     D
C114   H120    0.950   .     S
C114   C1906   1.390   .     S
C115   H121    0.950   .     S
N116   N1845   1.360   .     S
N116   Fe648   2.091   .     S
N117   N5300   1.360   1_554 S
N117   Fe214   2.139   .     S
H122   C125    0.750   .     S
H122   C126    0.750   .     S
C123   C125    1.360   .     S
C123   N129    1.360   .     D
C123   H131    0.950   .     S
C124   C5309   1.360   1_554 S
C124   N130    1.360   .     D
C124   H132    0.950   .     S
C125   C1852   1.360   .     S
C125   C126    1.500   .     S
C126   C128    1.390   .     S
C126   C1894   1.390   .     S
C127   C128    1.390   .     D
C127   H133    0.950   .     S
C127   C1893   1.390   .     S
C128   H134    0.950   .     S
N129   N1858   1.360   .     S
N129   Fe323   2.091   .     S
N130   N5313   1.360   1_554 S
N130   Fe321   2.139   .     S
H135   C138    0.750   .     S
H135   C139    0.750   .     S
C136   C138    1.360   .     S
C136   N142    1.360   .     D
C136   H144    0.950   .     S
C137   C138    1.360   .     S
C137   N143    1.360   .     D
C137   H145    0.950   .     S
C138   C139    1.500   .     S
C139   C141    1.390   .     S
C139   C205    1.390   .     S
C140   C141    1.390   .     D
C140   H146    0.950   .     S
C140   C204    1.390   .     S
C141   H147    0.950   .     S
N142   N143    1.360   .     S
N142   Fe648   2.091   .     S
N143   Fe214   2.139   .     S
H148   C151    0.750   .     S
H148   C152    0.750   .     S
C149   C151    1.360   .     S
C149   N155    1.360   .     D
C149   H157    0.950   .     S
C150   C151    1.360   .     S
C150   N156    1.360   .     D
C150   H158    0.950   .     S
C151   C152    1.500   .     S
C152   C154    1.390   .     S
C152   C192    1.390   .     S
C153   C154    1.390   .     D
C153   H159    0.950   .     S
C153   C191    1.390   .     S
C154   H160    0.950   .     S
N155   N156    1.360   .     S
N155   Fe215   2.091   .     S
N156   Fe213   2.139   .     S
H161   C164    0.750   .     S
H161   C165    0.750   .     S
C162   C164    1.360   .     S
C162   N168    1.360   .     D
C162   H170    0.950   .     S
C163   C1892   1.360   .     S
C163   N169    1.360   .     D
C163   H171    0.950   .     S
C164   C5347   1.360   1_554 S
C164   C165    1.500   .     S
C165   C167    1.390   .     S
C165   C5311   1.390   1_554 S
C166   C167    1.390   .     D
C166   H172    0.950   .     S
C166   C5310   1.390   1_554 S
C167   H173    0.950   .     S
N168   N5353   1.360   1_554 S
N168   Fe1510  2.091   1_545 S
N169   N1896   1.360   .     S
N169   Fe216   2.139   .     S
H174   C177    0.750   .     S
H174   C178    0.750   .     S
C175   C177    1.360   .     S
C175   N181    1.360   .     D
C175   H183    0.950   .     S
C176   C1905   1.360   .     S
C176   N182    1.360   .     D
C176   H184    0.950   .     S
C177   C5360   1.360   1_554 S
C177   C178    1.500   .     S
C178   C180    1.390   .     S
C178   C5298   1.390   1_554 S
C179   C180    1.390   .     D
C179   H185    0.950   .     S
C179   C5297   1.390   1_554 S
C180   H186    0.950   .     S
N181   N5366   1.360   1_554 S
N181   Fe213   2.091   .     S
N182   N1909   1.360   .     S
N182   Fe215   2.139   .     S
H187   C190    0.750   .     S
H187   C191    0.750   .     S
C188   C190    1.360   .     S
C188   N194    1.360   .     D
C188   H196    0.950   .     S
C189   C190    1.360   .     S
C189   N195    1.360   .     D
C189   H197    0.950   .     S
C190   C191    1.500   .     S
C191   C193    1.390   .     S
C192   C193    1.390   .     D
C192   H198    0.950   .     S
C193   H199    0.950   .     S
N194   N195    1.360   .     S
N194   Fe1510  2.091   1_545 S
N195   Fe216   2.139   .     S
H200   C203    0.750   .     S
H200   C204    0.750   .     S
C201   C203    1.360   .     S
C201   N207    1.360   .     D
C201   H209    0.950   .     S
C202   C203    1.360   .     S
C202   N208    1.360   .     D
C202   H210    0.950   .     S
C203   C204    1.500   .     S
C204   C206    1.390   .     S
C205   C206    1.390   .     D
C205   H211    0.950   .     S
C206   H212    0.950   .     S
N207   N208    1.360   .     S
N207   Fe321   2.091   .     S
N208   Fe323   2.139   .     S
Fe214  N600    2.091   .     S
Fe214  N626    2.091   .     S
Fe216  N1412   2.091   1_545 S
Fe216  N1438   2.091   1_545 S
H217   C220    0.750   .     S
H217   C221    0.750   .     S
C218   C220    1.360   .     S
C218   N224    1.360   .     D
C218   H226    0.950   .     S
C219   C5404   1.360   1_554 S
C219   N225    1.360   .     D
C219   H227    0.950   .     S
C220   C1947   1.360   .     S
C220   C221    1.500   .     S
C221   C223    1.390   .     S
C221   C2015   1.390   .     S
C222   C223    1.390   .     D
C222   H228    0.950   .     S
C222   C2014   1.390   .     S
C223   H229    0.950   .     S
N224   N1953   1.360   .     S
N224   Fe756   2.091   .     S
N225   N5408   1.360   1_554 S
N225   Fe322   2.139   .     S
H230   C233    0.750   .     S
H230   C234    0.750   .     S
C231   C233    1.360   .     S
C231   N237    1.360   .     D
C231   H239    0.950   .     S
C232   C5417   1.360   1_554 S
C232   N238    1.360   .     D
C232   H240    0.950   .     S
C233   C1960   1.360   .     S
C233   C234    1.500   .     S
C234   C236    1.390   .     S
C234   C2002   1.390   .     S
C235   C236    1.390   .     D
C235   H241    0.950   .     S
C235   C2001   1.390   .     S
C236   H242    0.950   .     S
N237   N1966   1.360   .     S
N237   Fe431   2.091   .     S
N238   N5421   1.360   1_554 S
N238   Fe429   2.139   .     S
H243   C246    0.750   .     S
H243   C247    0.750   .     S
C244   C246    1.360   .     S
C244   N250    1.360   .     D
C244   H252    0.950   .     S
C245   C246    1.360   .     S
C245   N251    1.360   .     D
C245   H253    0.950   .     S
C246   C247    1.500   .     S
C247   C249    1.390   .     S
C247   C313    1.390   .     S
C248   C249    1.390   .     D
C248   H254    0.950   .     S
C248   C312    1.390   .     S
C249   H255    0.950   .     S
N250   N251    1.360   .     S
N250   Fe756   2.091   .     S
N251   Fe322   2.139   .     S
H256   C259    0.750   .     S
H256   C260    0.750   .     S
C257   C259    1.360   .     S
C257   N263    1.360   .     D
C257   H265    0.950   .     S
C258   C259    1.360   .     S
C258   N264    1.360   .     D
C258   H266    0.950   .     S
C259   C260    1.500   .     S
C260   C262    1.390   .     S
C260   C300    1.390   .     S
C261   C262    1.390   .     D
C261   H267    0.950   .     S
C261   C299    1.390   .     S
C262   H268    0.950   .     S
N263   N264    1.360   .     S
N263   Fe323   2.091   .     S
N264   Fe321   2.139   .     S
H269   C272    0.750   .     S
H269   C273    0.750   .     S
C270   C272    1.360   .     S
C270   N276    1.360   .     D
C270   H278    0.950   .     S
C271   C2000   1.360   .     S
C271   N277    1.360   .     D
C271   H279    0.950   .     S
C272   C5455   1.360   1_554 S
C272   C273    1.500   .     S
C273   C275    1.390   .     S
C273   C5419   1.390   1_554 S
C274   C275    1.390   .     D
C274   H280    0.950   .     S
C274   C5418   1.390   1_554 S
C275   H281    0.950   .     S
N276   N5461   1.360   1_554 S
N276   Fe1618  2.091   1_545 S
N277   N2004   1.360   .     S
N277   Fe324   2.139   .     S
H282   C285    0.750   .     S
H282   C286    0.750   .     S
C283   C285    1.360   .     S
C283   N289    1.360   .     D
C283   H291    0.950   .     S
C284   C2013   1.360   .     S
C284   N290    1.360   .     D
C284   H292    0.950   .     S
C285   C5468   1.360   1_554 S
C285   C286    1.500   .     S
C286   C288    1.390   .     S
C286   C5406   1.390   1_554 S
C287   C288    1.390   .     D
C287   H293    0.950   .     S
C287   C5405   1.390   1_554 S
C288   H294    0.950   .     S
N289   N5474   1.360   1_554 S
N289   Fe321   2.091   .     S
N290   N2017   1.360   .     S
N290   Fe323   2.139   .     S
H295   C298    0.750   .     S
H295   C299    0.750   .     S
C296   C298    1.360   .     S
C296   N302    1.360   .     D
C296   H304    0.950   .     S
C297   C298    1.360   .     S
C297   N303    1.360   .     D
C297   H305    0.950   .     S
C298   C299    1.500   .     S
C299   C301    1.390   .     S
C300   C301    1.390   .     D
C300   H306    0.950   .     S
C301   H307    0.950   .     S
N302   N303    1.360   .     S
N302   Fe1618  2.091   1_545 S
N303   Fe324   2.139   .     S
H308   C311    0.750   .     S
H308   C312    0.750   .     S
C309   C311    1.360   .     S
C309   N315    1.360   .     D
C309   H317    0.950   .     S
C310   C311    1.360   .     S
C310   N316    1.360   .     D
C310   H318    0.950   .     S
C311   C312    1.500   .     S
C312   C314    1.390   .     S
C313   C314    1.390   .     D
C313   H319    0.950   .     S
C314   H320    0.950   .     S
N315   N316    1.360   .     S
N315   Fe429   2.091   .     S
N316   Fe431   2.139   .     S
Fe322  N708    2.091   .     S
Fe322  N734    2.091   .     S
Fe324  N1520   2.091   1_545 S
Fe324  N1546   2.091   1_545 S
H325   C328    0.750   .     S
H325   C329    0.750   .     S
C326   C328    1.360   .     S
C326   N332    1.360   .     D
C326   H334    0.950   .     S
C327   C5512   1.360   1_554 S
C327   N333    1.360   .     D
C327   H335    0.950   .     S
C328   C2055   1.360   .     S
C328   C329    1.500   .     S
C329   C331    1.390   .     S
C329   C2123   1.390   .     S
C330   C331    1.390   .     D
C330   H336    0.950   .     S
C330   C2122   1.390   .     S
C331   H337    0.950   .     S
N332   N2061   1.360   .     S
N332   Fe864   2.091   .     S
N333   N5516   1.360   1_554 S
N333   Fe430   2.139   .     S
H338   C341    0.750   .     S
H338   C342    0.750   .     S
C339   C341    1.360   .     S
C339   N345    1.360   .     D
C339   H347    0.950   .     S
C340   C5525   1.360   1_554 S
C340   N346    1.360   .     D
C340   H348    0.950   .     S
C341   C2068   1.360   .     S
C341   C342    1.500   .     S
C342   C344    1.390   .     S
C342   C2110   1.390   .     S
C343   C344    1.390   .     D
C343   H349    0.950   .     S
C343   C2109   1.390   .     S
C344   H350    0.950   .     S
N345   N2074   1.360   .     S
N345   Fe107   2.091   1_655 S
N346   N5529   1.360   1_554 S
N346   Fe105   2.139   1_655 S
H351   C354    0.750   .     S
H351   C355    0.750   .     S
C352   C354    1.360   .     S
C352   N358    1.360   .     D
C352   H360    0.950   .     S
C353   C354    1.360   .     S
C353   N359    1.360   .     D
C353   H361    0.950   .     S
C354   C355    1.500   .     S
C355   C357    1.390   .     S
C355   C421    1.390   .     S
C356   C357    1.390   .     D
C356   H362    0.950   .     S
C356   C420    1.390   .     S
C357   H363    0.950   .     S
N358   N359    1.360   .     S
N358   Fe864   2.091   .     S
N359   Fe430   2.139   .     S
H364   C367    0.750   .     S
H364   C368    0.750   .     S
C365   C367    1.360   .     S
C365   N371    1.360   .     D
C365   H373    0.950   .     S
C366   C367    1.360   .     S
C366   N372    1.360   .     D
C366   H374    0.950   .     S
C367   C368    1.500   .     S
C368   C370    1.390   .     S
C368   C408    1.390   .     S
C369   C370    1.390   .     D
C369   H375    0.950   .     S
C369   C407    1.390   .     S
C370   H376    0.950   .     S
N371   N372    1.360   .     S
N371   Fe431   2.091   .     S
N372   Fe429   2.139   .     S
H377   C380    0.750   .     S
H377   C381    0.750   .     S
C378   C380    1.360   .     S
C378   N384    1.360   .     D
C378   H386    0.950   .     S
C379   C2108   1.360   .     S
C379   N385    1.360   .     D
C379   H387    0.950   .     S
C380   C5563   1.360   1_554 S
C380   C381    1.500   .     S
C381   C383    1.390   .     S
C381   C5527   1.390   1_554 S
C382   C383    1.390   .     D
C382   H388    0.950   .     S
C382   C5526   1.390   1_554 S
C383   H389    0.950   .     S
N384   N5569   1.360   1_554 S
N384   Fe1726  2.091   1_545 S
N385   N2112   1.360   .     S
N385   Fe432   2.139   .     S
H390   C393    0.750   .     S
H390   C394    0.750   .     S
C391   C393    1.360   .     S
C391   N397    1.360   .     D
C391   H399    0.950   .     S
C392   C2121   1.360   .     S
C392   N398    1.360   .     D
C392   H400    0.950   .     S
C393   C5576   1.360   1_554 S
C393   C394    1.500   .     S
C394   C396    1.390   .     S
C394   C5514   1.390   1_554 S
C395   C396    1.390   .     D
C395   H401    0.950   .     S
C395   C5513   1.390   1_554 S
C396   H402    0.950   .     S
N397   N5582   1.360   1_554 S
N397   Fe429   2.091   .     S
N398   N2125   1.360   .     S
N398   Fe431   2.139   .     S
H403   C406    0.750   .     S
H403   C407    0.750   .     S
C404   C406    1.360   .     S
C404   N410    1.360   .     D
C404   H412    0.950   .     S
C405   C406    1.360   .     S
C405   N411    1.360   .     D
C405   H413    0.950   .     S
C406   C407    1.500   .     S
C407   C409    1.390   .     S
C408   C409    1.390   .     D
C408   H414    0.950   .     S
C409   H415    0.950   .     S
N410   N411    1.360   .     S
N410   Fe1726  2.091   1_545 S
N411   Fe432   2.139   .     S
H416   C419    0.750   .     S
H416   C420    0.750   .     S
C417   C419    1.360   .     S
C417   N423    1.360   .     D
C417   H425    0.950   .     S
C418   C419    1.360   .     S
C418   N424    1.360   .     D
C418   H426    0.950   .     S
C419   C420    1.500   .     S
C420   C422    1.390   .     S
C421   C422    1.390   .     D
C421   H427    0.950   .     S
C422   H428    0.950   .     S
N423   N424    1.360   .     S
N423   Fe105   2.091   1_655 S
N424   Fe107   2.139   1_655 S
Fe430  N816    2.091   .     S
Fe430  N842    2.091   .     S
Fe432  N1628   2.091   1_545 S
Fe432  N1654   2.091   1_545 S
H433   C436    0.750   .     S
H433   C437    0.750   .     S
C434   C436    1.360   .     S
C434   N440    1.360   .     D
C434   H442    0.950   .     S
C435   C5620   1.360   1_554 S
C435   N441    1.360   .     D
C435   H443    0.950   .     S
C436   C2163   1.360   .     S
C436   C437    1.500   .     S
C437   C439    1.390   .     S
C437   C2231   1.390   .     S
C438   C439    1.390   .     D
C438   H444    0.950   .     S
C438   C2230   1.390   .     S
C439   H445    0.950   .     S
N440   N2169   1.360   .     S
N440   Fe972   2.091   .     S
N441   N5624   1.360   1_554 S
N441   Fe538   2.139   .     S
H446   C449    0.750   .     S
H446   C450    0.750   .     S
C447   C449    1.360   .     S
C447   N453    1.360   .     D
C447   H455    0.950   .     S
C448   C5633   1.360   1_554 S
C448   N454    1.360   .     D
C448   H456    0.950   .     S
C449   C2176   1.360   .     S
C449   C450    1.500   .     S
C450   C452    1.390   .     S
C450   C2218   1.390   .     S
C451   C452    1.390   .     D
C451   H457    0.950   .     S
C451   C2217   1.390   .     S
C452   H458    0.950   .     S
N453   N2182   1.360   .     S
N453   Fe647   2.091   .     S
N454   N5637   1.360   1_554 S
N454   Fe645   2.139   .     S
H459   C462    0.750   .     S
H459   C463    0.750   .     S
C460   C462    1.360   .     S
C460   N466    1.360   .     D
C460   H468    0.950   .     S
C461   C462    1.360   .     S
C461   N467    1.360   .     D
C461   H469    0.950   .     S
C462   C463    1.500   .     S
C463   C465    1.390   .     S
C463   C529    1.390   .     S
C464   C465    1.390   .     D
C464   H470    0.950   .     S
C464   C528    1.390   .     S
C465   H471    0.950   .     S
N466   N467    1.360   .     S
N466   Fe972   2.091   .     S
N467   Fe538   2.139   .     S
H472   C475    0.750   .     S
H472   C476    0.750   .     S
C473   C475    1.360   .     S
C473   N479    1.360   .     D
C473   H481    0.950   .     S
C474   C475    1.360   .     S
C474   N480    1.360   .     D
C474   H482    0.950   .     S
C475   C476    1.500   .     S
C476   C478    1.390   .     S
C476   C516    1.390   .     S
C477   C478    1.390   .     D
C477   H483    0.950   .     S
C477   C515    1.390   .     S
C478   H484    0.950   .     S
N479   N480    1.360   .     S
N479   Fe539   2.091   .     S
N480   Fe537   2.139   .     S
H485   C488    0.750   .     S
H485   C489    0.750   .     S
C486   C488    1.360   .     S
C486   N492    1.360   .     D
C486   H494    0.950   .     S
C487   C2216   1.360   .     S
C487   N493    1.360   .     D
C487   H495    0.950   .     S
C488   C5671   1.360   1_554 S
C488   C489    1.500   .     S
C489   C491    1.390   .     S
C489   C5635   1.390   1_554 S
C490   C491    1.390   .     D
C490   H496    0.950   .     S
C490   C5634   1.390   1_554 S
C491   H497    0.950   .     S
N492   N5677   1.360   1_554 S
N493   N2220   1.360   .     S
N493   Fe540   2.139   .     S
H498   C501    0.750   .     S
H498   C502    0.750   .     S
C499   C501    1.360   .     S
C499   N505    1.360   .     D
C499   H507    0.950   .     S
C500   C2229   1.360   .     S
C500   N506    1.360   .     D
C500   H508    0.950   .     S
C501   C5684   1.360   1_554 S
C501   C502    1.500   .     S
C502   C504    1.390   .     S
C502   C5622   1.390   1_554 S
C503   C504    1.390   .     D
C503   H509    0.950   .     S
C503   C5621   1.390   1_554 S
C504   H510    0.950   .     S
N505   N5690   1.360   1_554 S
N505   Fe537   2.091   .     S
N506   N2233   1.360   .     S
N506   Fe539   2.139   .     S
H511   C514    0.750   .     S
H511   C515    0.750   .     S
C512   C514    1.360   .     S
C512   N518    1.360   .     D
C512   H520    0.950   .     S
C513   C514    1.360   .     S
C513   N519    1.360   .     D
C513   H521    0.950   .     S
C514   C515    1.500   .     S
C515   C517    1.390   .     S
C516   C517    1.390   .     D
C516   H522    0.950   .     S
C517   H523    0.950   .     S
N518   N519    1.360   .     S
N519   Fe540   2.139   .     S
H524   C527    0.750   .     S
H524   C528    0.750   .     S
C525   C527    1.360   .     S
C525   N531    1.360   .     D
C525   H533    0.950   .     S
C526   C527    1.360   .     S
C526   N532    1.360   .     D
C526   H534    0.950   .     S
C527   C528    1.500   .     S
C528   C530    1.390   .     S
C529   C530    1.390   .     D
C529   H535    0.950   .     S
C530   H536    0.950   .     S
N531   N532    1.360   .     S
N531   Fe645   2.091   .     S
N532   Fe647   2.139   .     S
Fe537  N855    2.091   1_455 S
Fe537  N778    2.139   1_455 S
Fe538  N924    2.091   .     S
Fe538  N950    2.091   .     S
Fe539  N777    2.091   1_455 S
Fe539  N856    2.139   1_455 S
H541   C544    0.750   .     S
H541   C545    0.750   .     S
C542   C544    1.360   .     S
C542   N548    1.360   .     D
C542   H550    0.950   .     S
C543   C5728   1.360   1_554 S
C543   N549    1.360   .     D
C543   H551    0.950   .     S
C544   C2271   1.360   .     S
C544   C545    1.500   .     S
C545   C547    1.390   .     S
C545   C2339   1.390   .     S
C546   C547    1.390   .     D
C546   H552    0.950   .     S
C546   C2338   1.390   .     S
C547   H553    0.950   .     S
N548   N2277   1.360   .     S
N548   Fe1080  2.091   .     S
N549   N5732   1.360   1_554 S
N549   Fe646   2.139   .     S
H554   C557    0.750   .     S
H554   C558    0.750   .     S
C555   C557    1.360   .     S
C555   N561    1.360   .     D
C555   H563    0.950   .     S
C556   C5741   1.360   1_554 S
C556   N562    1.360   .     D
C556   H564    0.950   .     S
C557   C2284   1.360   .     S
C557   C558    1.500   .     S
C558   C560    1.390   .     S
C558   C2326   1.390   .     S
C559   C560    1.390   .     D
C559   H565    0.950   .     S
C559   C2325   1.390   .     S
C560   H566    0.950   .     S
N561   N2290   1.360   .     S
N561   Fe755   2.091   .     S
N562   N5745   1.360   1_554 S
N562   Fe753   2.139   .     S
H567   C570    0.750   .     S
H567   C571    0.750   .     S
C568   C570    1.360   .     S
C568   N574    1.360   .     D
C568   H576    0.950   .     S
C569   C570    1.360   .     S
C569   N575    1.360   .     D
C569   H577    0.950   .     S
C570   C571    1.500   .     S
C571   C573    1.390   .     S
C571   C637    1.390   .     S
C572   C573    1.390   .     D
C572   H578    0.950   .     S
C572   C636    1.390   .     S
C573   H579    0.950   .     S
N574   N575    1.360   .     S
N574   Fe1080  2.091   .     S
N575   Fe646   2.139   .     S
H580   C583    0.750   .     S
H580   C584    0.750   .     S
C581   C583    1.360   .     S
C581   N587    1.360   .     D
C581   H589    0.950   .     S
C582   C583    1.360   .     S
C582   N588    1.360   .     D
C582   H590    0.950   .     S
C583   C584    1.500   .     S
C584   C586    1.390   .     S
C584   C624    1.390   .     S
C585   C586    1.390   .     D
C585   H591    0.950   .     S
C585   C623    1.390   .     S
C586   H592    0.950   .     S
N587   N588    1.360   .     S
N587   Fe647   2.091   .     S
N588   Fe645   2.139   .     S
H593   C596    0.750   .     S
H593   C597    0.750   .     S
C594   C596    1.360   .     S
C594   N600    1.360   .     D
C594   H602    0.950   .     S
C595   C2324   1.360   .     S
C595   N601    1.360   .     D
C595   H603    0.950   .     S
C596   C5779   1.360   1_554 S
C596   C597    1.500   .     S
C597   C599    1.390   .     S
C597   C5743   1.390   1_554 S
C598   C599    1.390   .     D
C598   H604    0.950   .     S
C598   C5742   1.390   1_554 S
C599   H605    0.950   .     S
N600   N5785   1.360   1_554 S
N601   N2328   1.360   .     S
N601   Fe648   2.139   .     S
H606   C609    0.750   .     S
H606   C610    0.750   .     S
C607   C609    1.360   .     S
C607   N613    1.360   .     D
C607   H615    0.950   .     S
C608   C2337   1.360   .     S
C608   N614    1.360   .     D
C608   H616    0.950   .     S
C609   C5792   1.360   1_554 S
C609   C610    1.500   .     S
C610   C612    1.390   .     S
C610   C5730   1.390   1_554 S
C611   C612    1.390   .     D
C611   H617    0.950   .     S
C611   C5729   1.390   1_554 S
C612   H618    0.950   .     S
N613   N5798   1.360   1_554 S
N613   Fe645   2.091   .     S
N614   N2341   1.360   .     S
N614   Fe647   2.139   .     S
H619   C622    0.750   .     S
H619   C623    0.750   .     S
C620   C622    1.360   .     S
C620   N626    1.360   .     D
C620   H628    0.950   .     S
C621   C622    1.360   .     S
C621   N627    1.360   .     D
C621   H629    0.950   .     S
C622   C623    1.500   .     S
C623   C625    1.390   .     S
C624   C625    1.390   .     D
C624   H630    0.950   .     S
C625   H631    0.950   .     S
N626   N627    1.360   .     S
N627   Fe648   2.139   .     S
H632   C635    0.750   .     S
H632   C636    0.750   .     S
C633   C635    1.360   .     S
C633   N639    1.360   .     D
C633   H641    0.950   .     S
C634   C635    1.360   .     S
C634   N640    1.360   .     D
C634   H642    0.950   .     S
C635   C636    1.500   .     S
C636   C638    1.390   .     S
C637   C638    1.390   .     D
C637   H643    0.950   .     S
C638   H644    0.950   .     S
N639   N640    1.360   .     S
N639   Fe753   2.091   .     S
N640   Fe755   2.139   .     S
Fe646  N1032   2.091   .     S
Fe646  N1058   2.091   .     S
H649   C652    0.750   .     S
H649   C653    0.750   .     S
C650   C652    1.360   .     S
C650   N656    1.360   .     D
C650   H658    0.950   .     S
C651   C5836   1.360   1_554 S
C651   N657    1.360   .     D
C651   H659    0.950   .     S
C652   C2379   1.360   .     S
C652   C653    1.500   .     S
C653   C655    1.390   .     S
C653   C2447   1.390   .     S
C654   C655    1.390   .     D
C654   H660    0.950   .     S
C654   C2446   1.390   .     S
C655   H661    0.950   .     S
N656   N2385   1.360   .     S
N656   Fe1188  2.091   .     S
N657   N5840   1.360   1_554 S
N657   Fe754   2.139   .     S
H662   C665    0.750   .     S
H662   C666    0.750   .     S
C663   C665    1.360   .     S
C663   N669    1.360   .     D
C663   H671    0.950   .     S
C664   C5849   1.360   1_554 S
C664   N670    1.360   .     D
C664   H672    0.950   .     S
C665   C2392   1.360   .     S
C665   C666    1.500   .     S
C666   C668    1.390   .     S
C666   C2434   1.390   .     S
C667   C668    1.390   .     D
C667   H673    0.950   .     S
C667   C2433   1.390   .     S
C668   H674    0.950   .     S
N669   N2398   1.360   .     S
N669   Fe863   2.091   .     S
N670   N5853   1.360   1_554 S
N670   Fe861   2.139   .     S
H675   C678    0.750   .     S
H675   C679    0.750   .     S
C676   C678    1.360   .     S
C676   N682    1.360   .     D
C676   H684    0.950   .     S
C677   C678    1.360   .     S
C677   N683    1.360   .     D
C677   H685    0.950   .     S
C678   C679    1.500   .     S
C679   C681    1.390   .     S
C679   C745    1.390   .     S
C680   C681    1.390   .     D
C680   H686    0.950   .     S
C680   C744    1.390   .     S
C681   H687    0.950   .     S
N682   N683    1.360   .     S
N682   Fe1188  2.091   .     S
N683   Fe754   2.139   .     S
H688   C691    0.750   .     S
H688   C692    0.750   .     S
C689   C691    1.360   .     S
C689   N695    1.360   .     D
C689   H697    0.950   .     S
C690   C691    1.360   .     S
C690   N696    1.360   .     D
C690   H698    0.950   .     S
C691   C692    1.500   .     S
C692   C694    1.390   .     S
C692   C732    1.390   .     S
C693   C694    1.390   .     D
C693   H699    0.950   .     S
C693   C731    1.390   .     S
C694   H700    0.950   .     S
N695   N696    1.360   .     S
N695   Fe755   2.091   .     S
N696   Fe753   2.139   .     S
H701   C704    0.750   .     S
H701   C705    0.750   .     S
C702   C704    1.360   .     S
C702   N708    1.360   .     D
C702   H710    0.950   .     S
C703   C2432   1.360   .     S
C703   N709    1.360   .     D
C703   H711    0.950   .     S
C704   C5887   1.360   1_554 S
C704   C705    1.500   .     S
C705   C707    1.390   .     S
C705   C5851   1.390   1_554 S
C706   C707    1.390   .     D
C706   H712    0.950   .     S
C706   C5850   1.390   1_554 S
C707   H713    0.950   .     S
N708   N5893   1.360   1_554 S
N709   N2436   1.360   .     S
N709   Fe756   2.139   .     S
H714   C717    0.750   .     S
H714   C718    0.750   .     S
C715   C717    1.360   .     S
C715   N721    1.360   .     D
C715   H723    0.950   .     S
C716   C2445   1.360   .     S
C716   N722    1.360   .     D
C716   H724    0.950   .     S
C717   C5900   1.360   1_554 S
C717   C718    1.500   .     S
C718   C720    1.390   .     S
C718   C5838   1.390   1_554 S
C719   C720    1.390   .     D
C719   H725    0.950   .     S
C719   C5837   1.390   1_554 S
C720   H726    0.950   .     S
N721   N5906   1.360   1_554 S
N721   Fe753   2.091   .     S
N722   N2449   1.360   .     S
N722   Fe755   2.139   .     S
H727   C730    0.750   .     S
H727   C731    0.750   .     S
C728   C730    1.360   .     S
C728   N734    1.360   .     D
C728   H736    0.950   .     S
C729   C730    1.360   .     S
C729   N735    1.360   .     D
C729   H737    0.950   .     S
C730   C731    1.500   .     S
C731   C733    1.390   .     S
C732   C733    1.390   .     D
C732   H738    0.950   .     S
C733   H739    0.950   .     S
N734   N735    1.360   .     S
N735   Fe756   2.139   .     S
H740   C743    0.750   .     S
H740   C744    0.750   .     S
C741   C743    1.360   .     S
C741   N747    1.360   .     D
C741   H749    0.950   .     S
C742   C743    1.360   .     S
C742   N748    1.360   .     D
C742   H750    0.950   .     S
C743   C744    1.500   .     S
C744   C746    1.390   .     S
C745   C746    1.390   .     D
C745   H751    0.950   .     S
C746   H752    0.950   .     S
N747   N748    1.360   .     S
N747   Fe861   2.091   .     S
N748   Fe863   2.139   .     S
Fe754  N1140   2.091   .     S
Fe754  N1166   2.091   .     S
H757   C760    0.750   .     S
H757   C761    0.750   .     S
C758   C760    1.360   .     S
C758   N764    1.360   .     D
C758   H766    0.950   .     S
C759   C5944   1.360   1_554 S
C759   N765    1.360   .     D
C759   H767    0.950   .     S
C760   C2487   1.360   .     S
C760   C761    1.500   .     S
C761   C763    1.390   .     S
C761   C2555   1.390   .     S
C762   C763    1.390   .     D
C762   H768    0.950   .     S
C762   C2554   1.390   .     S
C763   H769    0.950   .     S
N764   N2493   1.360   .     S
N764   Fe1296  2.091   .     S
N765   N5948   1.360   1_554 S
N765   Fe862   2.139   .     S
H770   C773    0.750   .     S
H770   C774    0.750   .     S
C771   C773    1.360   .     S
C771   N777    1.360   .     D
C771   H779    0.950   .     S
C772   C5957   1.360   1_554 S
C772   N778    1.360   .     D
C772   H780    0.950   .     S
C773   C2500   1.360   .     S
C773   C774    1.500   .     S
C774   C776    1.390   .     S
C774   C2542   1.390   .     S
C775   C776    1.390   .     D
C775   H781    0.950   .     S
C775   C2541   1.390   .     S
C776   H782    0.950   .     S
N777   N2506   1.360   .     S
N777   Fe539   2.091   1_655 S
N778   N5961   1.360   1_554 S
N778   Fe537   2.139   1_655 S
H783   C786    0.750   .     S
H783   C787    0.750   .     S
C784   C786    1.360   .     S
C784   N790    1.360   .     D
C784   H792    0.950   .     S
C785   C786    1.360   .     S
C785   N791    1.360   .     D
C785   H793    0.950   .     S
C786   C787    1.500   .     S
C787   C789    1.390   .     S
C787   C853    1.390   .     S
C788   C789    1.390   .     D
C788   H794    0.950   .     S
C788   C852    1.390   .     S
C789   H795    0.950   .     S
N790   N791    1.360   .     S
N790   Fe1296  2.091   .     S
N791   Fe862   2.139   .     S
H796   C799    0.750   .     S
H796   C800    0.750   .     S
C797   C799    1.360   .     S
C797   N803    1.360   .     D
C797   H805    0.950   .     S
C798   C799    1.360   .     S
C798   N804    1.360   .     D
C798   H806    0.950   .     S
C799   C800    1.500   .     S
C800   C802    1.390   .     S
C800   C840    1.390   .     S
C801   C802    1.390   .     D
C801   H807    0.950   .     S
C801   C839    1.390   .     S
C802   H808    0.950   .     S
N803   N804    1.360   .     S
N803   Fe863   2.091   .     S
N804   Fe861   2.139   .     S
H809   C812    0.750   .     S
H809   C813    0.750   .     S
C810   C812    1.360   .     S
C810   N816    1.360   .     D
C810   H818    0.950   .     S
C811   C2540   1.360   .     S
C811   N817    1.360   .     D
C811   H819    0.950   .     S
C812   C5995   1.360   1_554 S
C812   C813    1.500   .     S
C813   C815    1.390   .     S
C813   C5959   1.390   1_554 S
C814   C815    1.390   .     D
C814   H820    0.950   .     S
C814   C5958   1.390   1_554 S
C815   H821    0.950   .     S
N816   N6001   1.360   1_554 S
N817   N2544   1.360   .     S
N817   Fe864   2.139   .     S
H822   C825    0.750   .     S
H822   C826    0.750   .     S
C823   C825    1.360   .     S
C823   N829    1.360   .     D
C823   H831    0.950   .     S
C824   C2553   1.360   .     S
C824   N830    1.360   .     D
C824   H832    0.950   .     S
C825   C6008   1.360   1_554 S
C825   C826    1.500   .     S
C826   C828    1.390   .     S
C826   C5946   1.390   1_554 S
C827   C828    1.390   .     D
C827   H833    0.950   .     S
C827   C5945   1.390   1_554 S
C828   H834    0.950   .     S
N829   N6014   1.360   1_554 S
N829   Fe861   2.091   .     S
N830   N2557   1.360   .     S
N830   Fe863   2.139   .     S
H835   C838    0.750   .     S
H835   C839    0.750   .     S
C836   C838    1.360   .     S
C836   N842    1.360   .     D
C836   H844    0.950   .     S
C837   C838    1.360   .     S
C837   N843    1.360   .     D
C837   H845    0.950   .     S
C838   C839    1.500   .     S
C839   C841    1.390   .     S
C840   C841    1.390   .     D
C840   H846    0.950   .     S
C841   H847    0.950   .     S
N842   N843    1.360   .     S
N843   Fe864   2.139   .     S
H848   C851    0.750   .     S
H848   C852    0.750   .     S
C849   C851    1.360   .     S
C849   N855    1.360   .     D
C849   H857    0.950   .     S
C850   C851    1.360   .     S
C850   N856    1.360   .     D
C850   H858    0.950   .     S
C851   C852    1.500   .     S
C852   C854    1.390   .     S
C853   C854    1.390   .     D
C853   H859    0.950   .     S
C854   H860    0.950   .     S
N855   N856    1.360   .     S
N855   Fe537   2.091   1_655 S
N856   Fe539   2.139   1_655 S
Fe862  N1248   2.091   .     S
Fe862  N1274   2.091   .     S
H865   C868    0.750   .     S
H865   C869    0.750   .     S
C866   C868    1.360   .     S
C866   N872    1.360   .     D
C866   H874    0.950   .     S
C867   C6052   1.360   1_554 S
C867   N873    1.360   .     D
C867   H875    0.950   .     S
C868   C2595   1.360   .     S
C868   C869    1.500   .     S
C869   C871    1.390   .     S
C869   C2663   1.390   .     S
C870   C871    1.390   .     D
C870   H876    0.950   .     S
C870   C2662   1.390   .     S
C871   H877    0.950   .     S
N872   N2601   1.360   .     S
N872   Fe1404  2.091   .     S
N873   N6056   1.360   1_554 S
N873   Fe970   2.139   .     S
H878   C881    0.750   .     S
H878   C882    0.750   .     S
C879   C881    1.360   .     S
C879   N885    1.360   .     D
C879   H887    0.950   .     S
C880   C6065   1.360   1_554 S
C880   N886    1.360   .     D
C880   H888    0.950   .     S
C881   C2608   1.360   .     S
C881   C882    1.500   .     S
C882   C884    1.390   .     S
C882   C2650   1.390   .     S
C883   C884    1.390   .     D
C883   H889    0.950   .     S
C883   C2649   1.390   .     S
C884   H890    0.950   .     S
N885   N2614   1.360   .     S
N885   Fe1079  2.091   .     S
N886   N6069   1.360   1_554 S
N886   Fe1077  2.139   .     S
H891   C894    0.750   .     S
H891   C895    0.750   .     S
C892   C894    1.360   .     S
C892   N898    1.360   .     D
C892   H900    0.950   .     S
C893   C894    1.360   .     S
C893   N899    1.360   .     D
C893   H901    0.950   .     S
C894   C895    1.500   .     S
C895   C897    1.390   .     S
C895   C961    1.390   .     S
C896   C897    1.390   .     D
C896   H902    0.950   .     S
C896   C960    1.390   .     S
C897   H903    0.950   .     S
N898   N899    1.360   .     S
N898   Fe1404  2.091   .     S
N899   Fe970   2.139   .     S
H904   C907    0.750   .     S
H904   C908    0.750   .     S
C905   C907    1.360   .     S
C905   N911    1.360   .     D
C905   H913    0.950   .     S
C906   C907    1.360   .     S
C906   N912    1.360   .     D
C906   H914    0.950   .     S
C907   C908    1.500   .     S
C908   C910    1.390   .     S
C908   C948    1.390   .     S
C909   C910    1.390   .     D
C909   H915    0.950   .     S
C909   C947    1.390   .     S
C910   H916    0.950   .     S
N911   N912    1.360   .     S
N911   Fe971   2.091   .     S
N912   Fe969   2.139   .     S
H917   C920    0.750   .     S
H917   C921    0.750   .     S
C918   C920    1.360   .     S
C918   N924    1.360   .     D
C918   H926    0.950   .     S
C919   C2648   1.360   .     S
C919   N925    1.360   .     D
C919   H927    0.950   .     S
C920   C6103   1.360   1_554 S
C920   C921    1.500   .     S
C921   C923    1.390   .     S
C921   C6067   1.390   1_554 S
C922   C923    1.390   .     D
C922   H928    0.950   .     S
C922   C6066   1.390   1_554 S
C923   H929    0.950   .     S
N924   N6109   1.360   1_554 S
N925   N2652   1.360   .     S
N925   Fe972   2.139   .     S
H930   C933    0.750   .     S
H930   C934    0.750   .     S
C931   C933    1.360   .     S
C931   N937    1.360   .     D
C931   H939    0.950   .     S
C932   C2661   1.360   .     S
C932   N938    1.360   .     D
C932   H940    0.950   .     S
C933   C6116   1.360   1_554 S
C933   C934    1.500   .     S
C934   C936    1.390   .     S
C934   C6054   1.390   1_554 S
C935   C936    1.390   .     D
C935   H941    0.950   .     S
C935   C6053   1.390   1_554 S
C936   H942    0.950   .     S
N937   N6122   1.360   1_554 S
N937   Fe969   2.091   .     S
N938   N2665   1.360   .     S
N938   Fe971   2.139   .     S
H943   C946    0.750   .     S
H943   C947    0.750   .     S
C944   C946    1.360   .     S
C944   N950    1.360   .     D
C944   H952    0.950   .     S
C945   C946    1.360   .     S
C945   N951    1.360   .     D
C945   H953    0.950   .     S
C946   C947    1.500   .     S
C947   C949    1.390   .     S
C948   C949    1.390   .     D
C948   H954    0.950   .     S
C949   H955    0.950   .     S
N950   N951    1.360   .     S
N951   Fe972   2.139   .     S
H956   C959    0.750   .     S
H956   C960    0.750   .     S
C957   C959    1.360   .     S
C957   N963    1.360   .     D
C957   H965    0.950   .     S
C958   C959    1.360   .     S
C958   N964    1.360   .     D
C958   H966    0.950   .     S
C959   C960    1.500   .     S
C960   C962    1.390   .     S
C961   C962    1.390   .     D
C961   H967    0.950   .     S
C962   H968    0.950   .     S
N963   N964    1.360   .     S
N963   Fe1077  2.091   .     S
N964   Fe1079  2.139   .     S
Fe969  N1287   2.091   1_455 S
Fe969  N1210   2.139   1_455 S
Fe970  N1356   2.091   .     S
Fe970  N1382   2.091   .     S
Fe971  N1209   2.091   1_455 S
Fe971  N1288   2.139   1_455 S
H973   C976    0.750   .     S
H973   C977    0.750   .     S
C974   C976    1.360   .     S
C974   N980    1.360   .     D
C974   H982    0.950   .     S
C975   C6160   1.360   1_554 S
C975   N981    1.360   .     D
C975   H983    0.950   .     S
C976   C2703   1.360   .     S
C976   C977    1.500   .     S
C977   C979    1.390   .     S
C977   C2771   1.390   .     S
C978   C979    1.390   .     D
C978   H984    0.950   .     S
C978   C2770   1.390   .     S
C979   H985    0.950   .     S
N980   N2709   1.360   .     S
N980   Fe1512  2.091   .     S
N981   N6164   1.360   1_554 S
N981   Fe1078  2.139   .     S
H986   C989    0.750   .     S
H986   C990    0.750   .     S
C987   C989    1.360   .     S
C987   N993    1.360   .     D
C987   H995    0.950   .     S
C988   C6173   1.360   1_554 S
C988   N994    1.360   .     D
C988   H996    0.950   .     S
C989   C2716   1.360   .     S
C989   C990    1.500   .     S
C990   C992    1.390   .     S
C990   C2758   1.390   .     S
C991   C992    1.390   .     D
C991   H997    0.950   .     S
C991   C2757   1.390   .     S
C992   H998    0.950   .     S
N993   N2722   1.360   .     S
N993   Fe1187  2.091   .     S
N994   N6177   1.360   1_554 S
N994   Fe1185  2.139   .     S
H999   C1002   0.750   .     S
H999   C1003   0.750   .     S
C1000  C1002   1.360   .     S
C1000  N1006   1.360   .     D
C1000  H1008   0.950   .     S
C1001  C1002   1.360   .     S
C1001  N1007   1.360   .     D
C1001  H1009   0.950   .     S
C1002  C1003   1.500   .     S
C1003  C1005   1.390   .     S
C1003  C1069   1.390   .     S
C1004  C1005   1.390   .     D
C1004  H1010   0.950   .     S
C1004  C1068   1.390   .     S
C1005  H1011   0.950   .     S
N1006  N1007   1.360   .     S
N1006  Fe1512  2.091   .     S
N1007  Fe1078  2.139   .     S
H1012  C1015   0.750   .     S
H1012  C1016   0.750   .     S
C1013  C1015   1.360   .     S
C1013  N1019   1.360   .     D
C1013  H1021   0.950   .     S
C1014  C1015   1.360   .     S
C1014  N1020   1.360   .     D
C1014  H1022   0.950   .     S
C1015  C1016   1.500   .     S
C1016  C1018   1.390   .     S
C1016  C1056   1.390   .     S
C1017  C1018   1.390   .     D
C1017  H1023   0.950   .     S
C1017  C1055   1.390   .     S
C1018  H1024   0.950   .     S
N1019  N1020   1.360   .     S
N1019  Fe1079  2.091   .     S
N1020  Fe1077  2.139   .     S
H1025  C1028   0.750   .     S
H1025  C1029   0.750   .     S
C1026  C1028   1.360   .     S
C1026  N1032   1.360   .     D
C1026  H1034   0.950   .     S
C1027  C2756   1.360   .     S
C1027  N1033   1.360   .     D
C1027  H1035   0.950   .     S
C1028  C6211   1.360   1_554 S
C1028  C1029   1.500   .     S
C1029  C1031   1.390   .     S
C1029  C6175   1.390   1_554 S
C1030  C1031   1.390   .     D
C1030  H1036   0.950   .     S
C1030  C6174   1.390   1_554 S
C1031  H1037   0.950   .     S
N1032  N6217   1.360   1_554 S
N1033  N2760   1.360   .     S
N1033  Fe1080  2.139   .     S
H1038  C1041   0.750   .     S
H1038  C1042   0.750   .     S
C1039  C1041   1.360   .     S
C1039  N1045   1.360   .     D
C1039  H1047   0.950   .     S
C1040  C2769   1.360   .     S
C1040  N1046   1.360   .     D
C1040  H1048   0.950   .     S
C1041  C6224   1.360   1_554 S
C1041  C1042   1.500   .     S
C1042  C1044   1.390   .     S
C1042  C6162   1.390   1_554 S
C1043  C1044   1.390   .     D
C1043  H1049   0.950   .     S
C1043  C6161   1.390   1_554 S
C1044  H1050   0.950   .     S
N1045  N6230   1.360   1_554 S
N1045  Fe1077  2.091   .     S
N1046  N2773   1.360   .     S
N1046  Fe1079  2.139   .     S
H1051  C1054   0.750   .     S
H1051  C1055   0.750   .     S
C1052  C1054   1.360   .     S
C1052  N1058   1.360   .     D
C1052  H1060   0.950   .     S
C1053  C1054   1.360   .     S
C1053  N1059   1.360   .     D
C1053  H1061   0.950   .     S
C1054  C1055   1.500   .     S
C1055  C1057   1.390   .     S
C1056  C1057   1.390   .     D
C1056  H1062   0.950   .     S
C1057  H1063   0.950   .     S
N1058  N1059   1.360   .     S
N1059  Fe1080  2.139   .     S
H1064  C1067   0.750   .     S
H1064  C1068   0.750   .     S
C1065  C1067   1.360   .     S
C1065  N1071   1.360   .     D
C1065  H1073   0.950   .     S
C1066  C1067   1.360   .     S
C1066  N1072   1.360   .     D
C1066  H1074   0.950   .     S
C1067  C1068   1.500   .     S
C1068  C1070   1.390   .     S
C1069  C1070   1.390   .     D
C1069  H1075   0.950   .     S
C1070  H1076   0.950   .     S
N1071  N1072   1.360   .     S
N1071  Fe1185  2.091   .     S
N1072  Fe1187  2.139   .     S
Fe1078 N1464   2.091   .     S
Fe1078 N1490   2.091   .     S
H1081  C1084   0.750   .     S
H1081  C1085   0.750   .     S
C1082  C1084   1.360   .     S
C1082  N1088   1.360   .     D
C1082  H1090   0.950   .     S
C1083  C6268   1.360   1_554 S
C1083  N1089   1.360   .     D
C1083  H1091   0.950   .     S
C1084  C2811   1.360   .     S
C1084  C1085   1.500   .     S
C1085  C1087   1.390   .     S
C1085  C2879   1.390   .     S
C1086  C1087   1.390   .     D
C1086  H1092   0.950   .     S
C1086  C2878   1.390   .     S
C1087  H1093   0.950   .     S
N1088  N2817   1.360   .     S
N1088  Fe1620  2.091   .     S
N1089  N6272   1.360   1_554 S
N1089  Fe1186  2.139   .     S
H1094  C1097   0.750   .     S
H1094  C1098   0.750   .     S
C1095  C1097   1.360   .     S
C1095  N1101   1.360   .     D
C1095  H1103   0.950   .     S
C1096  C6281   1.360   1_554 S
C1096  N1102   1.360   .     D
C1096  H1104   0.950   .     S
C1097  C2824   1.360   .     S
C1097  C1098   1.500   .     S
C1098  C1100   1.390   .     S
C1098  C2866   1.390   .     S
C1099  C1100   1.390   .     D
C1099  H1105   0.950   .     S
C1099  C2865   1.390   .     S
C1100  H1106   0.950   .     S
N1101  N2830   1.360   .     S
N1101  Fe1295  2.091   .     S
N1102  N6285   1.360   1_554 S
N1102  Fe1293  2.139   .     S
H1107  C1110   0.750   .     S
H1107  C1111   0.750   .     S
C1108  C1110   1.360   .     S
C1108  N1114   1.360   .     D
C1108  H1116   0.950   .     S
C1109  C1110   1.360   .     S
C1109  N1115   1.360   .     D
C1109  H1117   0.950   .     S
C1110  C1111   1.500   .     S
C1111  C1113   1.390   .     S
C1111  C1177   1.390   .     S
C1112  C1113   1.390   .     D
C1112  H1118   0.950   .     S
C1112  C1176   1.390   .     S
C1113  H1119   0.950   .     S
N1114  N1115   1.360   .     S
N1114  Fe1620  2.091   .     S
N1115  Fe1186  2.139   .     S
H1120  C1123   0.750   .     S
H1120  C1124   0.750   .     S
C1121  C1123   1.360   .     S
C1121  N1127   1.360   .     D
C1121  H1129   0.950   .     S
C1122  C1123   1.360   .     S
C1122  N1128   1.360   .     D
C1122  H1130   0.950   .     S
C1123  C1124   1.500   .     S
C1124  C1126   1.390   .     S
C1124  C1164   1.390   .     S
C1125  C1126   1.390   .     D
C1125  H1131   0.950   .     S
C1125  C1163   1.390   .     S
C1126  H1132   0.950   .     S
N1127  N1128   1.360   .     S
N1127  Fe1187  2.091   .     S
N1128  Fe1185  2.139   .     S
H1133  C1136   0.750   .     S
H1133  C1137   0.750   .     S
C1134  C1136   1.360   .     S
C1134  N1140   1.360   .     D
C1134  H1142   0.950   .     S
C1135  C2864   1.360   .     S
C1135  N1141   1.360   .     D
C1135  H1143   0.950   .     S
C1136  C6319   1.360   1_554 S
C1136  C1137   1.500   .     S
C1137  C1139   1.390   .     S
C1137  C6283   1.390   1_554 S
C1138  C1139   1.390   .     D
C1138  H1144   0.950   .     S
C1138  C6282   1.390   1_554 S
C1139  H1145   0.950   .     S
N1140  N6325   1.360   1_554 S
N1141  N2868   1.360   .     S
N1141  Fe1188  2.139   .     S
H1146  C1149   0.750   .     S
H1146  C1150   0.750   .     S
C1147  C1149   1.360   .     S
C1147  N1153   1.360   .     D
C1147  H1155   0.950   .     S
C1148  C2877   1.360   .     S
C1148  N1154   1.360   .     D
C1148  H1156   0.950   .     S
C1149  C6332   1.360   1_554 S
C1149  C1150   1.500   .     S
C1150  C1152   1.390   .     S
C1150  C6270   1.390   1_554 S
C1151  C1152   1.390   .     D
C1151  H1157   0.950   .     S
C1151  C6269   1.390   1_554 S
C1152  H1158   0.950   .     S
N1153  N6338   1.360   1_554 S
N1153  Fe1185  2.091   .     S
N1154  N2881   1.360   .     S
N1154  Fe1187  2.139   .     S
H1159  C1162   0.750   .     S
H1159  C1163   0.750   .     S
C1160  C1162   1.360   .     S
C1160  N1166   1.360   .     D
C1160  H1168   0.950   .     S
C1161  C1162   1.360   .     S
C1161  N1167   1.360   .     D
C1161  H1169   0.950   .     S
C1162  C1163   1.500   .     S
C1163  C1165   1.390   .     S
C1164  C1165   1.390   .     D
C1164  H1170   0.950   .     S
C1165  H1171   0.950   .     S
N1166  N1167   1.360   .     S
N1167  Fe1188  2.139   .     S
H1172  C1175   0.750   .     S
H1172  C1176   0.750   .     S
C1173  C1175   1.360   .     S
C1173  N1179   1.360   .     D
C1173  H1181   0.950   .     S
C1174  C1175   1.360   .     S
C1174  N1180   1.360   .     D
C1174  H1182   0.950   .     S
C1175  C1176   1.500   .     S
C1176  C1178   1.390   .     S
C1177  C1178   1.390   .     D
C1177  H1183   0.950   .     S
C1178  H1184   0.950   .     S
N1179  N1180   1.360   .     S
N1179  Fe1293  2.091   .     S
N1180  Fe1295  2.139   .     S
Fe1186 N1572   2.091   .     S
Fe1186 N1598   2.091   .     S
H1189  C1192   0.750   .     S
H1189  C1193   0.750   .     S
C1190  C1192   1.360   .     S
C1190  N1196   1.360   .     D
C1190  H1198   0.950   .     S
C1191  C6376   1.360   1_554 S
C1191  N1197   1.360   .     D
C1191  H1199   0.950   .     S
C1192  C2919   1.360   .     S
C1192  C1193   1.500   .     S
C1193  C1195   1.390   .     S
C1193  C2987   1.390   .     S
C1194  C1195   1.390   .     D
C1194  H1200   0.950   .     S
C1194  C2986   1.390   .     S
C1195  H1201   0.950   .     S
N1196  N2925   1.360   .     S
N1196  Fe1728  2.091   .     S
N1197  N6380   1.360   1_554 S
N1197  Fe1294  2.139   .     S
H1202  C1205   0.750   .     S
H1202  C1206   0.750   .     S
C1203  C1205   1.360   .     S
C1203  N1209   1.360   .     D
C1203  H1211   0.950   .     S
C1204  C6389   1.360   1_554 S
C1204  N1210   1.360   .     D
C1204  H1212   0.950   .     S
C1205  C2932   1.360   .     S
C1205  C1206   1.500   .     S
C1206  C1208   1.390   .     S
C1206  C2974   1.390   .     S
C1207  C1208   1.390   .     D
C1207  H1213   0.950   .     S
C1207  C2973   1.390   .     S
C1208  H1214   0.950   .     S
N1209  N2938   1.360   .     S
N1209  Fe971   2.091   1_655 S
N1210  N6393   1.360   1_554 S
N1210  Fe969   2.139   1_655 S
H1215  C1218   0.750   .     S
H1215  C1219   0.750   .     S
C1216  C1218   1.360   .     S
C1216  N1222   1.360   .     D
C1216  H1224   0.950   .     S
C1217  C1218   1.360   .     S
C1217  N1223   1.360   .     D
C1217  H1225   0.950   .     S
C1218  C1219   1.500   .     S
C1219  C1221   1.390   .     S
C1219  C1285   1.390   .     S
C1220  C1221   1.390   .     D
C1220  H1226   0.950   .     S
C1220  C1284   1.390   .     S
C1221  H1227   0.950   .     S
N1222  N1223   1.360   .     S
N1222  Fe1728  2.091   .     S
N1223  Fe1294  2.139   .     S
H1228  C1231   0.750   .     S
H1228  C1232   0.750   .     S
C1229  C1231   1.360   .     S
C1229  N1235   1.360   .     D
C1229  H1237   0.950   .     S
C1230  C1231   1.360   .     S
C1230  N1236   1.360   .     D
C1230  H1238   0.950   .     S
C1231  C1232   1.500   .     S
C1232  C1234   1.390   .     S
C1232  C1272   1.390   .     S
C1233  C1234   1.390   .     D
C1233  H1239   0.950   .     S
C1233  C1271   1.390   .     S
C1234  H1240   0.950   .     S
N1235  N1236   1.360   .     S
N1235  Fe1295  2.091   .     S
N1236  Fe1293  2.139   .     S
H1241  C1244   0.750   .     S
H1241  C1245   0.750   .     S
C1242  C1244   1.360   .     S
C1242  N1248   1.360   .     D
C1242  H1250   0.950   .     S
C1243  C2972   1.360   .     S
C1243  N1249   1.360   .     D
C1243  H1251   0.950   .     S
C1244  C6427   1.360   1_554 S
C1244  C1245   1.500   .     S
C1245  C1247   1.390   .     S
C1245  C6391   1.390   1_554 S
C1246  C1247   1.390   .     D
C1246  H1252   0.950   .     S
C1246  C6390   1.390   1_554 S
C1247  H1253   0.950   .     S
N1248  N6433   1.360   1_554 S
N1249  N2976   1.360   .     S
N1249  Fe1296  2.139   .     S
H1254  C1257   0.750   .     S
H1254  C1258   0.750   .     S
C1255  C1257   1.360   .     S
C1255  N1261   1.360   .     D
C1255  H1263   0.950   .     S
C1256  C2985   1.360   .     S
C1256  N1262   1.360   .     D
C1256  H1264   0.950   .     S
C1257  C6440   1.360   1_554 S
C1257  C1258   1.500   .     S
C1258  C1260   1.390   .     S
C1258  C6378   1.390   1_554 S
C1259  C1260   1.390   .     D
C1259  H1265   0.950   .     S
C1259  C6377   1.390   1_554 S
C1260  H1266   0.950   .     S
N1261  N6446   1.360   1_554 S
N1261  Fe1293  2.091   .     S
N1262  N2989   1.360   .     S
N1262  Fe1295  2.139   .     S
H1267  C1270   0.750   .     S
H1267  C1271   0.750   .     S
C1268  C1270   1.360   .     S
C1268  N1274   1.360   .     D
C1268  H1276   0.950   .     S
C1269  C1270   1.360   .     S
C1269  N1275   1.360   .     D
C1269  H1277   0.950   .     S
C1270  C1271   1.500   .     S
C1271  C1273   1.390   .     S
C1272  C1273   1.390   .     D
C1272  H1278   0.950   .     S
C1273  H1279   0.950   .     S
N1274  N1275   1.360   .     S
N1275  Fe1296  2.139   .     S
H1280  C1283   0.750   .     S
H1280  C1284   0.750   .     S
C1281  C1283   1.360   .     S
C1281  N1287   1.360   .     D
C1281  H1289   0.950   .     S
C1282  C1283   1.360   .     S
C1282  N1288   1.360   .     D
C1282  H1290   0.950   .     S
C1283  C1284   1.500   .     S
C1284  C1286   1.390   .     S
C1285  C1286   1.390   .     D
C1285  H1291   0.950   .     S
C1286  H1292   0.950   .     S
N1287  N1288   1.360   .     S
N1287  Fe969   2.091   1_655 S
N1288  Fe971   2.139   1_655 S
Fe1294 N1680   2.091   .     S
Fe1294 N1706   2.091   .     S
H1297  C1300   0.750   .     S
H1297  C1301   0.750   .     S
C1298  C1300   1.360   .     S
C1298  N1304   1.360   .     D
C1298  H1306   0.950   .     S
C1299  C6484   1.360   1_554 S
C1299  N1305   1.360   .     D
C1299  H1307   0.950   .     S
C1300  C3027   1.360   .     S
C1300  C1301   1.500   .     S
C1301  C1303   1.390   .     S
C1301  C3095   1.390   .     S
C1302  C1303   1.390   .     D
C1302  H1308   0.950   .     S
C1302  C3094   1.390   .     S
C1303  H1309   0.950   .     S
N1304  N3033   1.360   .     S
N1304  Fe108   2.091   1_565 S
N1305  N6488   1.360   1_554 S
N1305  Fe1402  2.139   .     S
H1310  C1313   0.750   .     S
H1310  C1314   0.750   .     S
C1311  C1313   1.360   .     S
C1311  N1317   1.360   .     D
C1311  H1319   0.950   .     S
C1312  C6497   1.360   1_554 S
C1312  N1318   1.360   .     D
C1312  H1320   0.950   .     S
C1313  C3040   1.360   .     S
C1313  C1314   1.500   .     S
C1314  C1316   1.390   .     S
C1314  C3082   1.390   .     S
C1315  C1316   1.390   .     D
C1315  H1321   0.950   .     S
C1315  C3081   1.390   .     S
C1316  H1322   0.950   .     S
N1317  N3046   1.360   .     S
N1317  Fe1511  2.091   .     S
N1318  N6501   1.360   1_554 S
N1318  Fe1509  2.139   .     S
H1323  C1326   0.750   .     S
H1323  C1327   0.750   .     S
C1324  C1326   1.360   .     S
C1324  N1330   1.360   .     D
C1324  H1332   0.950   .     S
C1325  C1326   1.360   .     S
C1325  N1331   1.360   .     D
C1325  H1333   0.950   .     S
C1326  C1327   1.500   .     S
C1327  C1329   1.390   .     S
C1327  C1393   1.390   .     S
C1328  C1329   1.390   .     D
C1328  H1334   0.950   .     S
C1328  C1392   1.390   .     S
C1329  H1335   0.950   .     S
N1330  N1331   1.360   .     S
N1330  Fe108   2.091   1_565 S
N1331  Fe1402  2.139   .     S
H1336  C1339   0.750   .     S
H1336  C1340   0.750   .     S
C1337  C1339   1.360   .     S
C1337  N1343   1.360   .     D
C1337  H1345   0.950   .     S
C1338  C1339   1.360   .     S
C1338  N1344   1.360   .     D
C1338  H1346   0.950   .     S
C1339  C1340   1.500   .     S
C1340  C1342   1.390   .     S
C1340  C1380   1.390   .     S
C1341  C1342   1.390   .     D
C1341  H1347   0.950   .     S
C1341  C1379   1.390   .     S
C1342  H1348   0.950   .     S
N1343  N1344   1.360   .     S
N1343  Fe1403  2.091   .     S
N1344  Fe1401  2.139   .     S
H1349  C1352   0.750   .     S
H1349  C1353   0.750   .     S
C1350  C1352   1.360   .     S
C1350  N1356   1.360   .     D
C1350  H1358   0.950   .     S
C1351  C3080   1.360   .     S
C1351  N1357   1.360   .     D
C1351  H1359   0.950   .     S
C1352  C6535   1.360   1_554 S
C1352  C1353   1.500   .     S
C1353  C1355   1.390   .     S
C1353  C6499   1.390   1_554 S
C1354  C1355   1.390   .     D
C1354  H1360   0.950   .     S
C1354  C6498   1.390   1_554 S
C1355  H1361   0.950   .     S
N1356  N6541   1.360   1_554 S
N1357  N3084   1.360   .     S
N1357  Fe1404  2.139   .     S
H1362  C1365   0.750   .     S
H1362  C1366   0.750   .     S
C1363  C1365   1.360   .     S
C1363  N1369   1.360   .     D
C1363  H1371   0.950   .     S
C1364  C3093   1.360   .     S
C1364  N1370   1.360   .     D
C1364  H1372   0.950   .     S
C1365  C6548   1.360   1_554 S
C1365  C1366   1.500   .     S
C1366  C1368   1.390   .     S
C1366  C6486   1.390   1_554 S
C1367  C1368   1.390   .     D
C1367  H1373   0.950   .     S
C1367  C6485   1.390   1_554 S
C1368  H1374   0.950   .     S
N1369  N6554   1.360   1_554 S
N1369  Fe1401  2.091   .     S
N1370  N3097   1.360   .     S
N1370  Fe1403  2.139   .     S
H1375  C1378   0.750   .     S
H1375  C1379   0.750   .     S
C1376  C1378   1.360   .     S
C1376  N1382   1.360   .     D
C1376  H1384   0.950   .     S
C1377  C1378   1.360   .     S
C1377  N1383   1.360   .     D
C1377  H1385   0.950   .     S
C1378  C1379   1.500   .     S
C1379  C1381   1.390   .     S
C1380  C1381   1.390   .     D
C1380  H1386   0.950   .     S
C1381  H1387   0.950   .     S
N1382  N1383   1.360   .     S
N1383  Fe1404  2.139   .     S
H1388  C1391   0.750   .     S
H1388  C1392   0.750   .     S
C1389  C1391   1.360   .     S
C1389  N1395   1.360   .     D
C1389  H1397   0.950   .     S
C1390  C1391   1.360   .     S
C1390  N1396   1.360   .     D
C1390  H1398   0.950   .     S
C1391  C1392   1.500   .     S
C1392  C1394   1.390   .     S
C1393  C1394   1.390   .     D
C1393  H1399   0.950   .     S
C1394  H1400   0.950   .     S
N1395  N1396   1.360   .     S
N1395  Fe1509  2.091   .     S
N1396  Fe1511  2.139   .     S
Fe1401 N1719   2.091   1_455 S
Fe1401 N1642   2.139   1_455 S
Fe1402 N60     2.091   1_565 S
Fe1402 N86     2.091   1_565 S
Fe1403 N1641   2.091   1_455 S
Fe1403 N1720   2.139   1_455 S
H1405  C1408   0.750   .     S
H1405  C1409   0.750   .     S
C1406  C1408   1.360   .     S
C1406  N1412   1.360   .     D
C1406  H1414   0.950   .     S
C1407  C6592   1.360   1_554 S
C1407  N1413   1.360   .     D
C1407  H1415   0.950   .     S
C1408  C3135   1.360   .     S
C1408  C1409   1.500   .     S
C1409  C1411   1.390   .     S
C1409  C3203   1.390   .     S
C1410  C1411   1.390   .     D
C1410  H1416   0.950   .     S
C1410  C3202   1.390   .     S
C1411  H1417   0.950   .     S
N1412  N3141   1.360   .     S
N1412  Fe216   2.091   1_565 S
N1413  N6596   1.360   1_554 S
N1413  Fe1510  2.139   .     S
H1418  C1421   0.750   .     S
H1418  C1422   0.750   .     S
C1419  C1421   1.360   .     S
C1419  N1425   1.360   .     D
C1419  H1427   0.950   .     S
C1420  C6605   1.360   1_554 S
C1420  N1426   1.360   .     D
C1420  H1428   0.950   .     S
C1421  C3148   1.360   .     S
C1421  C1422   1.500   .     S
C1422  C1424   1.390   .     S
C1422  C3190   1.390   .     S
C1423  C1424   1.390   .     D
C1423  H1429   0.950   .     S
C1423  C3189   1.390   .     S
C1424  H1430   0.950   .     S
N1425  N3154   1.360   .     S
N1425  Fe1619  2.091   .     S
N1426  N6609   1.360   1_554 S
N1426  Fe1617  2.139   .     S
H1431  C1434   0.750   .     S
H1431  C1435   0.750   .     S
C1432  C1434   1.360   .     S
C1432  N1438   1.360   .     D
C1432  H1440   0.950   .     S
C1433  C1434   1.360   .     S
C1433  N1439   1.360   .     D
C1433  H1441   0.950   .     S
C1434  C1435   1.500   .     S
C1435  C1437   1.390   .     S
C1435  C1501   1.390   .     S
C1436  C1437   1.390   .     D
C1436  H1442   0.950   .     S
C1436  C1500   1.390   .     S
C1437  H1443   0.950   .     S
N1438  N1439   1.360   .     S
N1438  Fe216   2.091   1_565 S
N1439  Fe1510  2.139   .     S
H1444  C1447   0.750   .     S
H1444  C1448   0.750   .     S
C1445  C1447   1.360   .     S
C1445  N1451   1.360   .     D
C1445  H1453   0.950   .     S
C1446  C1447   1.360   .     S
C1446  N1452   1.360   .     D
C1446  H1454   0.950   .     S
C1447  C1448   1.500   .     S
C1448  C1450   1.390   .     S
C1448  C1488   1.390   .     S
C1449  C1450   1.390   .     D
C1449  H1455   0.950   .     S
C1449  C1487   1.390   .     S
C1450  H1456   0.950   .     S
N1451  N1452   1.360   .     S
N1451  Fe1511  2.091   .     S
N1452  Fe1509  2.139   .     S
H1457  C1460   0.750   .     S
H1457  C1461   0.750   .     S
C1458  C1460   1.360   .     S
C1458  N1464   1.360   .     D
C1458  H1466   0.950   .     S
C1459  C3188   1.360   .     S
C1459  N1465   1.360   .     D
C1459  H1467   0.950   .     S
C1460  C6643   1.360   1_554 S
C1460  C1461   1.500   .     S
C1461  C1463   1.390   .     S
C1461  C6607   1.390   1_554 S
C1462  C1463   1.390   .     D
C1462  H1468   0.950   .     S
C1462  C6606   1.390   1_554 S
C1463  H1469   0.950   .     S
N1464  N6649   1.360   1_554 S
N1465  N3192   1.360   .     S
N1465  Fe1512  2.139   .     S
H1470  C1473   0.750   .     S
H1470  C1474   0.750   .     S
C1471  C1473   1.360   .     S
C1471  N1477   1.360   .     D
C1471  H1479   0.950   .     S
C1472  C3201   1.360   .     S
C1472  N1478   1.360   .     D
C1472  H1480   0.950   .     S
C1473  C6656   1.360   1_554 S
C1473  C1474   1.500   .     S
C1474  C1476   1.390   .     S
C1474  C6594   1.390   1_554 S
C1475  C1476   1.390   .     D
C1475  H1481   0.950   .     S
C1475  C6593   1.390   1_554 S
C1476  H1482   0.950   .     S
N1477  N6662   1.360   1_554 S
N1477  Fe1509  2.091   .     S
N1478  N3205   1.360   .     S
N1478  Fe1511  2.139   .     S
H1483  C1486   0.750   .     S
H1483  C1487   0.750   .     S
C1484  C1486   1.360   .     S
C1484  N1490   1.360   .     D
C1484  H1492   0.950   .     S
C1485  C1486   1.360   .     S
C1485  N1491   1.360   .     D
C1485  H1493   0.950   .     S
C1486  C1487   1.500   .     S
C1487  C1489   1.390   .     S
C1488  C1489   1.390   .     D
C1488  H1494   0.950   .     S
C1489  H1495   0.950   .     S
N1490  N1491   1.360   .     S
N1491  Fe1512  2.139   .     S
H1496  C1499   0.750   .     S
H1496  C1500   0.750   .     S
C1497  C1499   1.360   .     S
C1497  N1503   1.360   .     D
C1497  H1505   0.950   .     S
C1498  C1499   1.360   .     S
C1498  N1504   1.360   .     D
C1498  H1506   0.950   .     S
C1499  C1500   1.500   .     S
C1500  C1502   1.390   .     S
C1501  C1502   1.390   .     D
C1501  H1507   0.950   .     S
C1502  H1508   0.950   .     S
N1503  N1504   1.360   .     S
N1503  Fe1617  2.091   .     S
N1504  Fe1619  2.139   .     S
Fe1510 N168    2.091   1_565 S
Fe1510 N194    2.091   1_565 S
H1513  C1516   0.750   .     S
H1513  C1517   0.750   .     S
C1514  C1516   1.360   .     S
C1514  N1520   1.360   .     D
C1514  H1522   0.950   .     S
C1515  C6700   1.360   1_554 S
C1515  N1521   1.360   .     D
C1515  H1523   0.950   .     S
C1516  C3243   1.360   .     S
C1516  C1517   1.500   .     S
C1517  C1519   1.390   .     S
C1517  C3311   1.390   .     S
C1518  C1519   1.390   .     D
C1518  H1524   0.950   .     S
C1518  C3310   1.390   .     S
C1519  H1525   0.950   .     S
N1520  N3249   1.360   .     S
N1520  Fe324   2.091   1_565 S
N1521  N6704   1.360   1_554 S
N1521  Fe1618  2.139   .     S
H1526  C1529   0.750   .     S
H1526  C1530   0.750   .     S
C1527  C1529   1.360   .     S
C1527  N1533   1.360   .     D
C1527  H1535   0.950   .     S
C1528  C6713   1.360   1_554 S
C1528  N1534   1.360   .     D
C1528  H1536   0.950   .     S
C1529  C3256   1.360   .     S
C1529  C1530   1.500   .     S
C1530  C1532   1.390   .     S
C1530  C3298   1.390   .     S
C1531  C1532   1.390   .     D
C1531  H1537   0.950   .     S
C1531  C3297   1.390   .     S
C1532  H1538   0.950   .     S
N1533  N3262   1.360   .     S
N1533  Fe1727  2.091   .     S
N1534  N6717   1.360   1_554 S
N1534  Fe1725  2.139   .     S
H1539  C1542   0.750   .     S
H1539  C1543   0.750   .     S
C1540  C1542   1.360   .     S
C1540  N1546   1.360   .     D
C1540  H1548   0.950   .     S
C1541  C1542   1.360   .     S
C1541  N1547   1.360   .     D
C1541  H1549   0.950   .     S
C1542  C1543   1.500   .     S
C1543  C1545   1.390   .     S
C1543  C1609   1.390   .     S
C1544  C1545   1.390   .     D
C1544  H1550   0.950   .     S
C1544  C1608   1.390   .     S
C1545  H1551   0.950   .     S
N1546  N1547   1.360   .     S
N1546  Fe324   2.091   1_565 S
N1547  Fe1618  2.139   .     S
H1552  C1555   0.750   .     S
H1552  C1556   0.750   .     S
C1553  C1555   1.360   .     S
C1553  N1559   1.360   .     D
C1553  H1561   0.950   .     S
C1554  C1555   1.360   .     S
C1554  N1560   1.360   .     D
C1554  H1562   0.950   .     S
C1555  C1556   1.500   .     S
C1556  C1558   1.390   .     S
C1556  C1596   1.390   .     S
C1557  C1558   1.390   .     D
C1557  H1563   0.950   .     S
C1557  C1595   1.390   .     S
C1558  H1564   0.950   .     S
N1559  N1560   1.360   .     S
N1559  Fe1619  2.091   .     S
N1560  Fe1617  2.139   .     S
H1565  C1568   0.750   .     S
H1565  C1569   0.750   .     S
C1566  C1568   1.360   .     S
C1566  N1572   1.360   .     D
C1566  H1574   0.950   .     S
C1567  C3296   1.360   .     S
C1567  N1573   1.360   .     D
C1567  H1575   0.950   .     S
C1568  C6751   1.360   1_554 S
C1568  C1569   1.500   .     S
C1569  C1571   1.390   .     S
C1569  C6715   1.390   1_554 S
C1570  C1571   1.390   .     D
C1570  H1576   0.950   .     S
C1570  C6714   1.390   1_554 S
C1571  H1577   0.950   .     S
N1572  N6757   1.360   1_554 S
N1573  N3300   1.360   .     S
N1573  Fe1620  2.139   .     S
H1578  C1581   0.750   .     S
H1578  C1582   0.750   .     S
C1579  C1581   1.360   .     S
C1579  N1585   1.360   .     D
C1579  H1587   0.950   .     S
C1580  C3309   1.360   .     S
C1580  N1586   1.360   .     D
C1580  H1588   0.950   .     S
C1581  C6764   1.360   1_554 S
C1581  C1582   1.500   .     S
C1582  C1584   1.390   .     S
C1582  C6702   1.390   1_554 S
C1583  C1584   1.390   .     D
C1583  H1589   0.950   .     S
C1583  C6701   1.390   1_554 S
C1584  H1590   0.950   .     S
N1585  N6770   1.360   1_554 S
N1585  Fe1617  2.091   .     S
N1586  N3313   1.360   .     S
N1586  Fe1619  2.139   .     S
H1591  C1594   0.750   .     S
H1591  C1595   0.750   .     S
C1592  C1594   1.360   .     S
C1592  N1598   1.360   .     D
C1592  H1600   0.950   .     S
C1593  C1594   1.360   .     S
C1593  N1599   1.360   .     D
C1593  H1601   0.950   .     S
C1594  C1595   1.500   .     S
C1595  C1597   1.390   .     S
C1596  C1597   1.390   .     D
C1596  H1602   0.950   .     S
C1597  H1603   0.950   .     S
N1598  N1599   1.360   .     S
N1599  Fe1620  2.139   .     S
H1604  C1607   0.750   .     S
H1604  C1608   0.750   .     S
C1605  C1607   1.360   .     S
C1605  N1611   1.360   .     D
C1605  H1613   0.950   .     S
C1606  C1607   1.360   .     S
C1606  N1612   1.360   .     D
C1606  H1614   0.950   .     S
C1607  C1608   1.500   .     S
C1608  C1610   1.390   .     S
C1609  C1610   1.390   .     D
C1609  H1615   0.950   .     S
C1610  H1616   0.950   .     S
N1611  N1612   1.360   .     S
N1611  Fe1725  2.091   .     S
N1612  Fe1727  2.139   .     S
Fe1618 N276    2.091   1_565 S
Fe1618 N302    2.091   1_565 S
H1621  C1624   0.750   .     S
H1621  C1625   0.750   .     S
C1622  C1624   1.360   .     S
C1622  N1628   1.360   .     D
C1622  H1630   0.950   .     S
C1623  C6808   1.360   1_554 S
C1623  N1629   1.360   .     D
C1623  H1631   0.950   .     S
C1624  C3351   1.360   .     S
C1624  C1625   1.500   .     S
C1625  C1627   1.390   .     S
C1625  C3419   1.390   .     S
C1626  C1627   1.390   .     D
C1626  H1632   0.950   .     S
C1626  C3418   1.390   .     S
C1627  H1633   0.950   .     S
N1628  N3357   1.360   .     S
N1628  Fe432   2.091   1_565 S
N1629  N6812   1.360   1_554 S
N1629  Fe1726  2.139   .     S
H1634  C1637   0.750   .     S
H1634  C1638   0.750   .     S
C1635  C1637   1.360   .     S
C1635  N1641   1.360   .     D
C1635  H1643   0.950   .     S
C1636  C6821   1.360   1_554 S
C1636  N1642   1.360   .     D
C1636  H1644   0.950   .     S
C1637  C3364   1.360   .     S
C1637  C1638   1.500   .     S
C1638  C1640   1.390   .     S
C1638  C3406   1.390   .     S
C1639  C1640   1.390   .     D
C1639  H1645   0.950   .     S
C1639  C3405   1.390   .     S
C1640  H1646   0.950   .     S
N1641  N3370   1.360   .     S
N1641  Fe1403  2.091   1_655 S
N1642  N6825   1.360   1_554 S
N1642  Fe1401  2.139   1_655 S
H1647  C1650   0.750   .     S
H1647  C1651   0.750   .     S
C1648  C1650   1.360   .     S
C1648  N1654   1.360   .     D
C1648  H1656   0.950   .     S
C1649  C1650   1.360   .     S
C1649  N1655   1.360   .     D
C1649  H1657   0.950   .     S
C1650  C1651   1.500   .     S
C1651  C1653   1.390   .     S
C1651  C1717   1.390   .     S
C1652  C1653   1.390   .     D
C1652  H1658   0.950   .     S
C1652  C1716   1.390   .     S
C1653  H1659   0.950   .     S
N1654  N1655   1.360   .     S
N1654  Fe432   2.091   1_565 S
N1655  Fe1726  2.139   .     S
H1660  C1663   0.750   .     S
H1660  C1664   0.750   .     S
C1661  C1663   1.360   .     S
C1661  N1667   1.360   .     D
C1661  H1669   0.950   .     S
C1662  C1663   1.360   .     S
C1662  N1668   1.360   .     D
C1662  H1670   0.950   .     S
C1663  C1664   1.500   .     S
C1664  C1666   1.390   .     S
C1664  C1704   1.390   .     S
C1665  C1666   1.390   .     D
C1665  H1671   0.950   .     S
C1665  C1703   1.390   .     S
C1666  H1672   0.950   .     S
N1667  N1668   1.360   .     S
N1667  Fe1727  2.091   .     S
N1668  Fe1725  2.139   .     S
H1673  C1676   0.750   .     S
H1673  C1677   0.750   .     S
C1674  C1676   1.360   .     S
C1674  N1680   1.360   .     D
C1674  H1682   0.950   .     S
C1675  C3404   1.360   .     S
C1675  N1681   1.360   .     D
C1675  H1683   0.950   .     S
C1676  C6859   1.360   1_554 S
C1676  C1677   1.500   .     S
C1677  C1679   1.390   .     S
C1677  C6823   1.390   1_554 S
C1678  C1679   1.390   .     D
C1678  H1684   0.950   .     S
C1678  C6822   1.390   1_554 S
C1679  H1685   0.950   .     S
N1680  N6865   1.360   1_554 S
N1681  N3408   1.360   .     S
N1681  Fe1728  2.139   .     S
H1686  C1689   0.750   .     S
H1686  C1690   0.750   .     S
C1687  C1689   1.360   .     S
C1687  N1693   1.360   .     D
C1687  H1695   0.950   .     S
C1688  C3417   1.360   .     S
C1688  N1694   1.360   .     D
C1688  H1696   0.950   .     S
C1689  C6872   1.360   1_554 S
C1689  C1690   1.500   .     S
C1690  C1692   1.390   .     S
C1690  C6810   1.390   1_554 S
C1691  C1692   1.390   .     D
C1691  H1697   0.950   .     S
C1691  C6809   1.390   1_554 S
C1692  H1698   0.950   .     S
N1693  N6878   1.360   1_554 S
N1693  Fe1725  2.091   .     S
N1694  N3421   1.360   .     S
N1694  Fe1727  2.139   .     S
H1699  C1702   0.750   .     S
H1699  C1703   0.750   .     S
C1700  C1702   1.360   .     S
C1700  N1706   1.360   .     D
C1700  H1708   0.950   .     S
C1701  C1702   1.360   .     S
C1701  N1707   1.360   .     D
C1701  H1709   0.950   .     S
C1702  C1703   1.500   .     S
C1703  C1705   1.390   .     S
C1704  C1705   1.390   .     D
C1704  H1710   0.950   .     S
C1705  H1711   0.950   .     S
N1706  N1707   1.360   .     S
N1707  Fe1728  2.139   .     S
H1712  C1715   0.750   .     S
H1712  C1716   0.750   .     S
C1713  C1715   1.360   .     S
C1713  N1719   1.360   .     D
C1713  H1721   0.950   .     S
C1714  C1715   1.360   .     S
C1714  N1720   1.360   .     D
C1714  H1722   0.950   .     S
C1715  C1716   1.500   .     S
C1716  C1718   1.390   .     S
C1717  C1718   1.390   .     D
C1717  H1723   0.950   .     S
C1718  H1724   0.950   .     S
N1719  N1720   1.360   .     S
N1719  Fe1401  2.091   1_655 S
N1720  Fe1403  2.139   1_655 S
Fe1726 N384    2.091   1_565 S
Fe1726 N410    2.091   1_565 S
H1729  C1732   0.750   .     S
H1729  C1733   0.750   .     S
C1730  C1732   1.360   .     S
C1730  N1736   1.360   .     D
C1730  H1738   0.950   .     S
C1731  N1737   1.360   .     D
C1731  H1739   0.950   .     S
C1732  C3459   1.360   .     S
C1732  C1733   1.500   .     S
C1733  C1735   1.390   .     S
C1733  C3527   1.390   .     S
C1734  C1735   1.390   .     D
C1734  H1740   0.950   .     S
C1734  C3526   1.390   .     S
C1735  H1741   0.950   .     S
N1736  N3465   1.360   .     S
N1736  Fe2268  2.091   .     S
N1737  Fe1834  2.139   .     S
H1742  C1745   0.750   .     S
H1742  C1746   0.750   .     S
C1743  C1745   1.360   .     S
C1743  N1749   1.360   .     D
C1743  H1751   0.950   .     S
C1744  N1750   1.360   .     D
C1744  H1752   0.950   .     S
C1745  C3472   1.360   .     S
C1745  C1746   1.500   .     S
C1746  C1748   1.390   .     S
C1746  C3514   1.390   .     S
C1747  C1748   1.390   .     D
C1747  H1753   0.950   .     S
C1747  C3513   1.390   .     S
C1748  H1754   0.950   .     S
N1749  N3478   1.360   .     S
N1749  Fe1943  2.091   .     S
N1750  Fe1941  2.139   .     S
H1755  C1758   0.750   .     S
H1755  C1759   0.750   .     S
C1756  C1758   1.360   .     S
C1756  N1762   1.360   .     D
C1756  H1764   0.950   .     S
C1757  C1758   1.360   .     S
C1757  N1763   1.360   .     D
C1757  H1765   0.950   .     S
C1758  C1759   1.500   .     S
C1759  C1761   1.390   .     S
C1759  C1825   1.390   .     S
C1760  C1761   1.390   .     D
C1760  H1766   0.950   .     S
C1760  C1824   1.390   .     S
C1761  H1767   0.950   .     S
N1762  N1763   1.360   .     S
N1762  Fe2268  2.091   .     S
N1763  Fe1834  2.139   .     S
H1768  C1771   0.750   .     S
H1768  C1772   0.750   .     S
C1769  C1771   1.360   .     S
C1769  N1775   1.360   .     D
C1769  H1777   0.950   .     S
C1770  C1771   1.360   .     S
C1770  N1776   1.360   .     D
C1770  H1778   0.950   .     S
C1771  C1772   1.500   .     S
C1772  C1774   1.390   .     S
C1772  C1812   1.390   .     S
C1773  C1774   1.390   .     D
C1773  H1779   0.950   .     S
C1773  C1811   1.390   .     S
C1774  H1780   0.950   .     S
N1775  N1776   1.360   .     S
N1775  Fe1835  2.091   .     S
N1776  Fe1833  2.139   .     S
H1781  C1784   0.750   .     S
H1781  C1785   0.750   .     S
C1782  C1784   1.360   .     S
C1782  N1788   1.360   .     D
C1782  H1790   0.950   .     S
C1783  C3512   1.360   .     S
C1783  N1789   1.360   .     D
C1783  H1791   0.950   .     S
C1784  C1785   1.500   .     S
C1785  C1787   1.390   .     S
C1786  C1787   1.390   .     D
C1786  H1792   0.950   .     S
C1787  H1793   0.950   .     S
N1788  Fe3130  2.091   1_545 S
N1789  N3516   1.360   .     S
N1789  Fe1836  2.139   .     S
H1794  C1797   0.750   .     S
H1794  C1798   0.750   .     S
C1795  C1797   1.360   .     S
C1795  N1801   1.360   .     D
C1795  H1803   0.950   .     S
C1796  C3525   1.360   .     S
C1796  N1802   1.360   .     D
C1796  H1804   0.950   .     S
C1797  C1798   1.500   .     S
C1798  C1800   1.390   .     S
C1799  C1800   1.390   .     D
C1799  H1805   0.950   .     S
C1800  H1806   0.950   .     S
N1801  Fe1833  2.091   .     S
N1802  N3529   1.360   .     S
N1802  Fe1835  2.139   .     S
H1807  C1810   0.750   .     S
H1807  C1811   0.750   .     S
C1808  C1810   1.360   .     S
C1808  N1814   1.360   .     D
C1808  H1816   0.950   .     S
C1809  C1810   1.360   .     S
C1809  N1815   1.360   .     D
C1809  H1817   0.950   .     S
C1810  C1811   1.500   .     S
C1811  C1813   1.390   .     S
C1812  C1813   1.390   .     D
C1812  H1818   0.950   .     S
C1813  H1819   0.950   .     S
N1814  N1815   1.360   .     S
N1814  Fe3130  2.091   1_545 S
N1815  Fe1836  2.139   .     S
H1820  C1823   0.750   .     S
H1820  C1824   0.750   .     S
C1821  C1823   1.360   .     S
C1821  N1827   1.360   .     D
C1821  H1829   0.950   .     S
C1822  C1823   1.360   .     S
C1822  N1828   1.360   .     D
C1822  H1830   0.950   .     S
C1823  C1824   1.500   .     S
C1824  C1826   1.390   .     S
C1825  C1826   1.390   .     D
C1825  H1831   0.950   .     S
C1826  H1832   0.950   .     S
N1827  N1828   1.360   .     S
N1827  Fe1941  2.091   .     S
N1828  Fe1943  2.139   .     S
Fe1833 N2151   2.091   1_455 S
Fe1833 N2074   2.139   1_455 S
Fe1834 N2220   2.091   .     S
Fe1834 N2246   2.091   .     S
Fe1835 N2073   2.091   1_455 S
Fe1835 N2152   2.139   1_455 S
Fe1836 N3032   2.091   1_545 S
Fe1836 N3058   2.091   1_545 S
H1837  C1840   0.750   .     S
H1837  C1841   0.750   .     S
C1838  C1840   1.360   .     S
C1838  N1844   1.360   .     D
C1838  H1846   0.950   .     S
C1839  N1845   1.360   .     D
C1839  H1847   0.950   .     S
C1840  C3567   1.360   .     S
C1840  C1841   1.500   .     S
C1841  C1843   1.390   .     S
C1841  C3635   1.390   .     S
C1842  C1843   1.390   .     D
C1842  H1848   0.950   .     S
C1842  C3634   1.390   .     S
C1843  H1849   0.950   .     S
N1844  N3573   1.360   .     S
N1844  Fe2376  2.091   .     S
N1845  Fe1942  2.139   .     S
H1850  C1853   0.750   .     S
H1850  C1854   0.750   .     S
C1851  C1853   1.360   .     S
C1851  N1857   1.360   .     D
C1851  H1859   0.950   .     S
C1852  N1858   1.360   .     D
C1852  H1860   0.950   .     S
C1853  C3580   1.360   .     S
C1853  C1854   1.500   .     S
C1854  C1856   1.390   .     S
C1854  C3622   1.390   .     S
C1855  C1856   1.390   .     D
C1855  H1861   0.950   .     S
C1855  C3621   1.390   .     S
C1856  H1862   0.950   .     S
N1857  N3586   1.360   .     S
N1857  Fe2051  2.091   .     S
N1858  Fe2049  2.139   .     S
H1863  C1866   0.750   .     S
H1863  C1867   0.750   .     S
C1864  C1866   1.360   .     S
C1864  N1870   1.360   .     D
C1864  H1872   0.950   .     S
C1865  C1866   1.360   .     S
C1865  N1871   1.360   .     D
C1865  H1873   0.950   .     S
C1866  C1867   1.500   .     S
C1867  C1869   1.390   .     S
C1867  C1933   1.390   .     S
C1868  C1869   1.390   .     D
C1868  H1874   0.950   .     S
C1868  C1932   1.390   .     S
C1869  H1875   0.950   .     S
N1870  N1871   1.360   .     S
N1870  Fe2376  2.091   .     S
N1871  Fe1942  2.139   .     S
H1876  C1879   0.750   .     S
H1876  C1880   0.750   .     S
C1877  C1879   1.360   .     S
C1877  N1883   1.360   .     D
C1877  H1885   0.950   .     S
C1878  C1879   1.360   .     S
C1878  N1884   1.360   .     D
C1878  H1886   0.950   .     S
C1879  C1880   1.500   .     S
C1880  C1882   1.390   .     S
C1880  C1920   1.390   .     S
C1881  C1882   1.390   .     D
C1881  H1887   0.950   .     S
C1881  C1919   1.390   .     S
C1882  H1888   0.950   .     S
N1883  N1884   1.360   .     S
N1883  Fe1943  2.091   .     S
N1884  Fe1941  2.139   .     S
H1889  C1892   0.750   .     S
H1889  C1893   0.750   .     S
C1890  C1892   1.360   .     S
C1890  N1896   1.360   .     D
C1890  H1898   0.950   .     S
C1891  C3620   1.360   .     S
C1891  N1897   1.360   .     D
C1891  H1899   0.950   .     S
C1892  C1893   1.500   .     S
C1893  C1895   1.390   .     S
C1894  C1895   1.390   .     D
C1894  H1900   0.950   .     S
C1895  H1901   0.950   .     S
N1896  Fe3238  2.091   1_545 S
N1897  N3624   1.360   .     S
N1897  Fe1944  2.139   .     S
H1902  C1905   0.750   .     S
H1902  C1906   0.750   .     S
C1903  C1905   1.360   .     S
C1903  N1909   1.360   .     D
C1903  H1911   0.950   .     S
C1904  C3633   1.360   .     S
C1904  N1910   1.360   .     D
C1904  H1912   0.950   .     S
C1905  C1906   1.500   .     S
C1906  C1908   1.390   .     S
C1907  C1908   1.390   .     D
C1907  H1913   0.950   .     S
C1908  H1914   0.950   .     S
N1909  Fe1941  2.091   .     S
N1910  N3637   1.360   .     S
N1910  Fe1943  2.139   .     S
H1915  C1918   0.750   .     S
H1915  C1919   0.750   .     S
C1916  C1918   1.360   .     S
C1916  N1922   1.360   .     D
C1916  H1924   0.950   .     S
C1917  C1918   1.360   .     S
C1917  N1923   1.360   .     D
C1917  H1925   0.950   .     S
C1918  C1919   1.500   .     S
C1919  C1921   1.390   .     S
C1920  C1921   1.390   .     D
C1920  H1926   0.950   .     S
C1921  H1927   0.950   .     S
N1922  N1923   1.360   .     S
N1922  Fe3238  2.091   1_545 S
N1923  Fe1944  2.139   .     S
H1928  C1931   0.750   .     S
H1928  C1932   0.750   .     S
C1929  C1931   1.360   .     S
C1929  N1935   1.360   .     D
C1929  H1937   0.950   .     S
C1930  C1931   1.360   .     S
C1930  N1936   1.360   .     D
C1930  H1938   0.950   .     S
C1931  C1932   1.500   .     S
C1932  C1934   1.390   .     S
C1933  C1934   1.390   .     D
C1933  H1939   0.950   .     S
C1934  H1940   0.950   .     S
N1935  N1936   1.360   .     S
N1935  Fe2049  2.091   .     S
N1936  Fe2051  2.139   .     S
Fe1942 N2328   2.091   .     S
Fe1942 N2354   2.091   .     S
Fe1944 N3140   2.091   1_545 S
Fe1944 N3166   2.091   1_545 S
H1945  C1948   0.750   .     S
H1945  C1949   0.750   .     S
C1946  C1948   1.360   .     S
C1946  N1952   1.360   .     D
C1946  H1954   0.950   .     S
C1947  N1953   1.360   .     D
C1947  H1955   0.950   .     S
C1948  C3675   1.360   .     S
C1948  C1949   1.500   .     S
C1949  C1951   1.390   .     S
C1949  C3743   1.390   .     S
C1950  C1951   1.390   .     D
C1950  H1956   0.950   .     S
C1950  C3742   1.390   .     S
C1951  H1957   0.950   .     S
N1952  N3681   1.360   .     S
N1952  Fe2484  2.091   .     S
N1953  Fe2050  2.139   .     S
H1958  C1961   0.750   .     S
H1958  C1962   0.750   .     S
C1959  C1961   1.360   .     S
C1959  N1965   1.360   .     D
C1959  H1967   0.950   .     S
C1960  N1966   1.360   .     D
C1960  H1968   0.950   .     S
C1961  C3688   1.360   .     S
C1961  C1962   1.500   .     S
C1962  C1964   1.390   .     S
C1962  C3730   1.390   .     S
C1963  C1964   1.390   .     D
C1963  H1969   0.950   .     S
C1963  C3729   1.390   .     S
C1964  H1970   0.950   .     S
N1965  N3694   1.360   .     S
N1965  Fe2159  2.091   .     S
N1966  Fe2157  2.139   .     S
H1971  C1974   0.750   .     S
H1971  C1975   0.750   .     S
C1972  C1974   1.360   .     S
C1972  N1978   1.360   .     D
C1972  H1980   0.950   .     S
C1973  C1974   1.360   .     S
C1973  N1979   1.360   .     D
C1973  H1981   0.950   .     S
C1974  C1975   1.500   .     S
C1975  C1977   1.390   .     S
C1975  C2041   1.390   .     S
C1976  C1977   1.390   .     D
C1976  H1982   0.950   .     S
C1976  C2040   1.390   .     S
C1977  H1983   0.950   .     S
N1978  N1979   1.360   .     S
N1978  Fe2484  2.091   .     S
N1979  Fe2050  2.139   .     S
H1984  C1987   0.750   .     S
H1984  C1988   0.750   .     S
C1985  C1987   1.360   .     S
C1985  N1991   1.360   .     D
C1985  H1993   0.950   .     S
C1986  C1987   1.360   .     S
C1986  N1992   1.360   .     D
C1986  H1994   0.950   .     S
C1987  C1988   1.500   .     S
C1988  C1990   1.390   .     S
C1988  C2028   1.390   .     S
C1989  C1990   1.390   .     D
C1989  H1995   0.950   .     S
C1989  C2027   1.390   .     S
C1990  H1996   0.950   .     S
N1991  N1992   1.360   .     S
N1991  Fe2051  2.091   .     S
N1992  Fe2049  2.139   .     S
H1997  C2000   0.750   .     S
H1997  C2001   0.750   .     S
C1998  C2000   1.360   .     S
C1998  N2004   1.360   .     D
C1998  H2006   0.950   .     S
C1999  C3728   1.360   .     S
C1999  N2005   1.360   .     D
C1999  H2007   0.950   .     S
C2000  C2001   1.500   .     S
C2001  C2003   1.390   .     S
C2002  C2003   1.390   .     D
C2002  H2008   0.950   .     S
C2003  H2009   0.950   .     S
N2004  Fe3346  2.091   1_545 S
N2005  N3732   1.360   .     S
N2005  Fe2052  2.139   .     S
H2010  C2013   0.750   .     S
H2010  C2014   0.750   .     S
C2011  C2013   1.360   .     S
C2011  N2017   1.360   .     D
C2011  H2019   0.950   .     S
C2012  C3741   1.360   .     S
C2012  N2018   1.360   .     D
C2012  H2020   0.950   .     S
C2013  C2014   1.500   .     S
C2014  C2016   1.390   .     S
C2015  C2016   1.390   .     D
C2015  H2021   0.950   .     S
C2016  H2022   0.950   .     S
N2017  Fe2049  2.091   .     S
N2018  N3745   1.360   .     S
N2018  Fe2051  2.139   .     S
H2023  C2026   0.750   .     S
H2023  C2027   0.750   .     S
C2024  C2026   1.360   .     S
C2024  N2030   1.360   .     D
C2024  H2032   0.950   .     S
C2025  C2026   1.360   .     S
C2025  N2031   1.360   .     D
C2025  H2033   0.950   .     S
C2026  C2027   1.500   .     S
C2027  C2029   1.390   .     S
C2028  C2029   1.390   .     D
C2028  H2034   0.950   .     S
C2029  H2035   0.950   .     S
N2030  N2031   1.360   .     S
N2030  Fe3346  2.091   1_545 S
N2031  Fe2052  2.139   .     S
H2036  C2039   0.750   .     S
H2036  C2040   0.750   .     S
C2037  C2039   1.360   .     S
C2037  N2043   1.360   .     D
C2037  H2045   0.950   .     S
C2038  C2039   1.360   .     S
C2038  N2044   1.360   .     D
C2038  H2046   0.950   .     S
C2039  C2040   1.500   .     S
C2040  C2042   1.390   .     S
C2041  C2042   1.390   .     D
C2041  H2047   0.950   .     S
C2042  H2048   0.950   .     S
N2043  N2044   1.360   .     S
N2043  Fe2157  2.091   .     S
N2044  Fe2159  2.139   .     S
Fe2050 N2436   2.091   .     S
Fe2050 N2462   2.091   .     S
Fe2052 N3248   2.091   1_545 S
Fe2052 N3274   2.091   1_545 S
H2053  C2056   0.750   .     S
H2053  C2057   0.750   .     S
C2054  C2056   1.360   .     S
C2054  N2060   1.360   .     D
C2054  H2062   0.950   .     S
C2055  N2061   1.360   .     D
C2055  H2063   0.950   .     S
C2056  C3783   1.360   .     S
C2056  C2057   1.500   .     S
C2057  C2059   1.390   .     S
C2057  C3851   1.390   .     S
C2058  C2059   1.390   .     D
C2058  H2064   0.950   .     S
C2058  C3850   1.390   .     S
C2059  H2065   0.950   .     S
N2060  N3789   1.360   .     S
N2060  Fe2592  2.091   .     S
N2061  Fe2158  2.139   .     S
H2066  C2069   0.750   .     S
H2066  C2070   0.750   .     S
C2067  C2069   1.360   .     S
C2067  N2073   1.360   .     D
C2067  H2075   0.950   .     S
C2068  N2074   1.360   .     D
C2068  H2076   0.950   .     S
C2069  C3796   1.360   .     S
C2069  C2070   1.500   .     S
C2070  C2072   1.390   .     S
C2070  C3838   1.390   .     S
C2071  C2072   1.390   .     D
C2071  H2077   0.950   .     S
C2071  C3837   1.390   .     S
C2072  H2078   0.950   .     S
N2073  N3802   1.360   .     S
N2073  Fe1835  2.091   1_655 S
N2074  Fe1833  2.139   1_655 S
H2079  C2082   0.750   .     S
H2079  C2083   0.750   .     S
C2080  C2082   1.360   .     S
C2080  N2086   1.360   .     D
C2080  H2088   0.950   .     S
C2081  C2082   1.360   .     S
C2081  N2087   1.360   .     D
C2081  H2089   0.950   .     S
C2082  C2083   1.500   .     S
C2083  C2085   1.390   .     S
C2083  C2149   1.390   .     S
C2084  C2085   1.390   .     D
C2084  H2090   0.950   .     S
C2084  C2148   1.390   .     S
C2085  H2091   0.950   .     S
N2086  N2087   1.360   .     S
N2086  Fe2592  2.091   .     S
N2087  Fe2158  2.139   .     S
H2092  C2095   0.750   .     S
H2092  C2096   0.750   .     S
C2093  C2095   1.360   .     S
C2093  N2099   1.360   .     D
C2093  H2101   0.950   .     S
C2094  C2095   1.360   .     S
C2094  N2100   1.360   .     D
C2094  H2102   0.950   .     S
C2095  C2096   1.500   .     S
C2096  C2098   1.390   .     S
C2096  C2136   1.390   .     S
C2097  C2098   1.390   .     D
C2097  H2103   0.950   .     S
C2097  C2135   1.390   .     S
C2098  H2104   0.950   .     S
N2099  N2100   1.360   .     S
N2099  Fe2159  2.091   .     S
N2100  Fe2157  2.139   .     S
H2105  C2108   0.750   .     S
H2105  C2109   0.750   .     S
C2106  C2108   1.360   .     S
C2106  N2112   1.360   .     D
C2106  H2114   0.950   .     S
C2107  C3836   1.360   .     S
C2107  N2113   1.360   .     D
C2107  H2115   0.950   .     S
C2108  C2109   1.500   .     S
C2109  C2111   1.390   .     S
C2110  C2111   1.390   .     D
C2110  H2116   0.950   .     S
C2111  H2117   0.950   .     S
N2112  Fe3454  2.091   1_545 S
N2113  N3840   1.360   .     S
N2113  Fe2160  2.139   .     S
H2118  C2121   0.750   .     S
H2118  C2122   0.750   .     S
C2119  C2121   1.360   .     S
C2119  N2125   1.360   .     D
C2119  H2127   0.950   .     S
C2120  C3849   1.360   .     S
C2120  N2126   1.360   .     D
C2120  H2128   0.950   .     S
C2121  C2122   1.500   .     S
C2122  C2124   1.390   .     S
C2123  C2124   1.390   .     D
C2123  H2129   0.950   .     S
C2124  H2130   0.950   .     S
N2125  Fe2157  2.091   .     S
N2126  N3853   1.360   .     S
N2126  Fe2159  2.139   .     S
H2131  C2134   0.750   .     S
H2131  C2135   0.750   .     S
C2132  C2134   1.360   .     S
C2132  N2138   1.360   .     D
C2132  H2140   0.950   .     S
C2133  C2134   1.360   .     S
C2133  N2139   1.360   .     D
C2133  H2141   0.950   .     S
C2134  C2135   1.500   .     S
C2135  C2137   1.390   .     S
C2136  C2137   1.390   .     D
C2136  H2142   0.950   .     S
C2137  H2143   0.950   .     S
N2138  N2139   1.360   .     S
N2138  Fe3454  2.091   1_545 S
N2139  Fe2160  2.139   .     S
H2144  C2147   0.750   .     S
H2144  C2148   0.750   .     S
C2145  C2147   1.360   .     S
C2145  N2151   1.360   .     D
C2145  H2153   0.950   .     S
C2146  C2147   1.360   .     S
C2146  N2152   1.360   .     D
C2146  H2154   0.950   .     S
C2147  C2148   1.500   .     S
C2148  C2150   1.390   .     S
C2149  C2150   1.390   .     D
C2149  H2155   0.950   .     S
C2150  H2156   0.950   .     S
N2151  N2152   1.360   .     S
N2151  Fe1833  2.091   1_655 S
N2152  Fe1835  2.139   1_655 S
Fe2158 N2544   2.091   .     S
Fe2158 N2570   2.091   .     S
Fe2160 N3356   2.091   1_545 S
Fe2160 N3382   2.091   1_545 S
H2161  C2164   0.750   .     S
H2161  C2165   0.750   .     S
C2162  C2164   1.360   .     S
C2162  N2168   1.360   .     D
C2162  H2170   0.950   .     S
C2163  N2169   1.360   .     D
C2163  H2171   0.950   .     S
C2164  C3891   1.360   .     S
C2164  C2165   1.500   .     S
C2165  C2167   1.390   .     S
C2165  C3959   1.390   .     S
C2166  C2167   1.390   .     D
C2166  H2172   0.950   .     S
C2166  C3958   1.390   .     S
C2167  H2173   0.950   .     S
N2168  N3897   1.360   .     S
N2168  Fe2700  2.091   .     S
N2169  Fe2266  2.139   .     S
H2174  C2177   0.750   .     S
H2174  C2178   0.750   .     S
C2175  C2177   1.360   .     S
C2175  N2181   1.360   .     D
C2175  H2183   0.950   .     S
C2176  N2182   1.360   .     D
C2176  H2184   0.950   .     S
C2177  C3904   1.360   .     S
C2177  C2178   1.500   .     S
C2178  C2180   1.390   .     S
C2178  C3946   1.390   .     S
C2179  C2180   1.390   .     D
C2179  H2185   0.950   .     S
C2179  C3945   1.390   .     S
C2180  H2186   0.950   .     S
N2181  N3910   1.360   .     S
N2181  Fe2375  2.091   .     S
N2182  Fe2373  2.139   .     S
H2187  C2190   0.750   .     S
H2187  C2191   0.750   .     S
C2188  C2190   1.360   .     S
C2188  N2194   1.360   .     D
C2188  H2196   0.950   .     S
C2189  C2190   1.360   .     S
C2189  N2195   1.360   .     D
C2189  H2197   0.950   .     S
C2190  C2191   1.500   .     S
C2191  C2193   1.390   .     S
C2191  C2257   1.390   .     S
C2192  C2193   1.390   .     D
C2192  H2198   0.950   .     S
C2192  C2256   1.390   .     S
C2193  H2199   0.950   .     S
N2194  N2195   1.360   .     S
N2194  Fe2700  2.091   .     S
N2195  Fe2266  2.139   .     S
H2200  C2203   0.750   .     S
H2200  C2204   0.750   .     S
C2201  C2203   1.360   .     S
C2201  N2207   1.360   .     D
C2201  H2209   0.950   .     S
C2202  C2203   1.360   .     S
C2202  N2208   1.360   .     D
C2202  H2210   0.950   .     S
C2203  C2204   1.500   .     S
C2204  C2206   1.390   .     S
C2204  C2244   1.390   .     S
C2205  C2206   1.390   .     D
C2205  H2211   0.950   .     S
C2205  C2243   1.390   .     S
C2206  H2212   0.950   .     S
N2207  N2208   1.360   .     S
N2207  Fe2267  2.091   .     S
N2208  Fe2265  2.139   .     S
H2213  C2216   0.750   .     S
H2213  C2217   0.750   .     S
C2214  C2216   1.360   .     S
C2214  N2220   1.360   .     D
C2214  H2222   0.950   .     S
C2215  C3944   1.360   .     S
C2215  N2221   1.360   .     D
C2215  H2223   0.950   .     S
C2216  C2217   1.500   .     S
C2217  C2219   1.390   .     S
C2218  C2219   1.390   .     D
C2218  H2224   0.950   .     S
C2219  H2225   0.950   .     S
N2221  N3948   1.360   .     S
N2221  Fe2268  2.139   .     S
H2226  C2229   0.750   .     S
H2226  C2230   0.750   .     S
C2227  C2229   1.360   .     S
C2227  N2233   1.360   .     D
C2227  H2235   0.950   .     S
C2228  C3957   1.360   .     S
C2228  N2234   1.360   .     D
C2228  H2236   0.950   .     S
C2229  C2230   1.500   .     S
C2230  C2232   1.390   .     S
C2231  C2232   1.390   .     D
C2231  H2237   0.950   .     S
C2232  H2238   0.950   .     S
N2233  Fe2265  2.091   .     S
N2234  N3961   1.360   .     S
N2234  Fe2267  2.139   .     S
H2239  C2242   0.750   .     S
H2239  C2243   0.750   .     S
C2240  C2242   1.360   .     S
C2240  N2246   1.360   .     D
C2240  H2248   0.950   .     S
C2241  C2242   1.360   .     S
C2241  N2247   1.360   .     D
C2241  H2249   0.950   .     S
C2242  C2243   1.500   .     S
C2243  C2245   1.390   .     S
C2244  C2245   1.390   .     D
C2244  H2250   0.950   .     S
C2245  H2251   0.950   .     S
N2246  N2247   1.360   .     S
N2247  Fe2268  2.139   .     S
H2252  C2255   0.750   .     S
H2252  C2256   0.750   .     S
C2253  C2255   1.360   .     S
C2253  N2259   1.360   .     D
C2253  H2261   0.950   .     S
C2254  C2255   1.360   .     S
C2254  N2260   1.360   .     D
C2254  H2262   0.950   .     S
C2255  C2256   1.500   .     S
C2256  C2258   1.390   .     S
C2257  C2258   1.390   .     D
C2257  H2263   0.950   .     S
C2258  H2264   0.950   .     S
N2259  N2260   1.360   .     S
N2259  Fe2373  2.091   .     S
N2260  Fe2375  2.139   .     S
Fe2265 N2583   2.091   1_455 S
Fe2265 N2506   2.139   1_455 S
Fe2266 N2652   2.091   .     S
Fe2266 N2678   2.091   .     S
Fe2267 N2505   2.091   1_455 S
Fe2267 N2584   2.139   1_455 S
H2269  C2272   0.750   .     S
H2269  C2273   0.750   .     S
C2270  C2272   1.360   .     S
C2270  N2276   1.360   .     D
C2270  H2278   0.950   .     S
C2271  N2277   1.360   .     D
C2271  H2279   0.950   .     S
C2272  C3999   1.360   .     S
C2272  C2273   1.500   .     S
C2273  C2275   1.390   .     S
C2273  C4067   1.390   .     S
C2274  C2275   1.390   .     D
C2274  H2280   0.950   .     S
C2274  C4066   1.390   .     S
C2275  H2281   0.950   .     S
N2276  N4005   1.360   .     S
N2276  Fe2808  2.091   .     S
N2277  Fe2374  2.139   .     S
H2282  C2285   0.750   .     S
H2282  C2286   0.750   .     S
C2283  C2285   1.360   .     S
C2283  N2289   1.360   .     D
C2283  H2291   0.950   .     S
C2284  N2290   1.360   .     D
C2284  H2292   0.950   .     S
C2285  C4012   1.360   .     S
C2285  C2286   1.500   .     S
C2286  C2288   1.390   .     S
C2286  C4054   1.390   .     S
C2287  C2288   1.390   .     D
C2287  H2293   0.950   .     S
C2287  C4053   1.390   .     S
C2288  H2294   0.950   .     S
N2289  N4018   1.360   .     S
N2289  Fe2483  2.091   .     S
N2290  Fe2481  2.139   .     S
H2295  C2298   0.750   .     S
H2295  C2299   0.750   .     S
C2296  C2298   1.360   .     S
C2296  N2302   1.360   .     D
C2296  H2304   0.950   .     S
C2297  C2298   1.360   .     S
C2297  N2303   1.360   .     D
C2297  H2305   0.950   .     S
C2298  C2299   1.500   .     S
C2299  C2301   1.390   .     S
C2299  C2365   1.390   .     S
C2300  C2301   1.390   .     D
C2300  H2306   0.950   .     S
C2300  C2364   1.390   .     S
C2301  H2307   0.950   .     S
N2302  N2303   1.360   .     S
N2302  Fe2808  2.091   .     S
N2303  Fe2374  2.139   .     S
H2308  C2311   0.750   .     S
H2308  C2312   0.750   .     S
C2309  C2311   1.360   .     S
C2309  N2315   1.360   .     D
C2309  H2317   0.950   .     S
C2310  C2311   1.360   .     S
C2310  N2316   1.360   .     D
C2310  H2318   0.950   .     S
C2311  C2312   1.500   .     S
C2312  C2314   1.390   .     S
C2312  C2352   1.390   .     S
C2313  C2314   1.390   .     D
C2313  H2319   0.950   .     S
C2313  C2351   1.390   .     S
C2314  H2320   0.950   .     S
N2315  N2316   1.360   .     S
N2315  Fe2375  2.091   .     S
N2316  Fe2373  2.139   .     S
H2321  C2324   0.750   .     S
H2321  C2325   0.750   .     S
C2322  C2324   1.360   .     S
C2322  N2328   1.360   .     D
C2322  H2330   0.950   .     S
C2323  C4052   1.360   .     S
C2323  N2329   1.360   .     D
C2323  H2331   0.950   .     S
C2324  C2325   1.500   .     S
C2325  C2327   1.390   .     S
C2326  C2327   1.390   .     D
C2326  H2332   0.950   .     S
C2327  H2333   0.950   .     S
N2329  N4056   1.360   .     S
N2329  Fe2376  2.139   .     S
H2334  C2337   0.750   .     S
H2334  C2338   0.750   .     S
C2335  C2337   1.360   .     S
C2335  N2341   1.360   .     D
C2335  H2343   0.950   .     S
C2336  C4065   1.360   .     S
C2336  N2342   1.360   .     D
C2336  H2344   0.950   .     S
C2337  C2338   1.500   .     S
C2338  C2340   1.390   .     S
C2339  C2340   1.390   .     D
C2339  H2345   0.950   .     S
C2340  H2346   0.950   .     S
N2341  Fe2373  2.091   .     S
N2342  N4069   1.360   .     S
N2342  Fe2375  2.139   .     S
H2347  C2350   0.750   .     S
H2347  C2351   0.750   .     S
C2348  C2350   1.360   .     S
C2348  N2354   1.360   .     D
C2348  H2356   0.950   .     S
C2349  C2350   1.360   .     S
C2349  N2355   1.360   .     D
C2349  H2357   0.950   .     S
C2350  C2351   1.500   .     S
C2351  C2353   1.390   .     S
C2352  C2353   1.390   .     D
C2352  H2358   0.950   .     S
C2353  H2359   0.950   .     S
N2354  N2355   1.360   .     S
N2355  Fe2376  2.139   .     S
H2360  C2363   0.750   .     S
H2360  C2364   0.750   .     S
C2361  C2363   1.360   .     S
C2361  N2367   1.360   .     D
C2361  H2369   0.950   .     S
C2362  C2363   1.360   .     S
C2362  N2368   1.360   .     D
C2362  H2370   0.950   .     S
C2363  C2364   1.500   .     S
C2364  C2366   1.390   .     S
C2365  C2366   1.390   .     D
C2365  H2371   0.950   .     S
C2366  H2372   0.950   .     S
N2367  N2368   1.360   .     S
N2367  Fe2481  2.091   .     S
N2368  Fe2483  2.139   .     S
Fe2374 N2760   2.091   .     S
Fe2374 N2786   2.091   .     S
H2377  C2380   0.750   .     S
H2377  C2381   0.750   .     S
C2378  C2380   1.360   .     S
C2378  N2384   1.360   .     D
C2378  H2386   0.950   .     S
C2379  N2385   1.360   .     D
C2379  H2387   0.950   .     S
C2380  C4107   1.360   .     S
C2380  C2381   1.500   .     S
C2381  C2383   1.390   .     S
C2381  C4175   1.390   .     S
C2382  C2383   1.390   .     D
C2382  H2388   0.950   .     S
C2382  C4174   1.390   .     S
C2383  H2389   0.950   .     S
N2384  N4113   1.360   .     S
N2384  Fe2916  2.091   .     S
N2385  Fe2482  2.139   .     S
H2390  C2393   0.750   .     S
H2390  C2394   0.750   .     S
C2391  C2393   1.360   .     S
C2391  N2397   1.360   .     D
C2391  H2399   0.950   .     S
C2392  N2398   1.360   .     D
C2392  H2400   0.950   .     S
C2393  C4120   1.360   .     S
C2393  C2394   1.500   .     S
C2394  C2396   1.390   .     S
C2394  C4162   1.390   .     S
C2395  C2396   1.390   .     D
C2395  H2401   0.950   .     S
C2395  C4161   1.390   .     S
C2396  H2402   0.950   .     S
N2397  N4126   1.360   .     S
N2397  Fe2591  2.091   .     S
N2398  Fe2589  2.139   .     S
H2403  C2406   0.750   .     S
H2403  C2407   0.750   .     S
C2404  C2406   1.360   .     S
C2404  N2410   1.360   .     D
C2404  H2412   0.950   .     S
C2405  C2406   1.360   .     S
C2405  N2411   1.360   .     D
C2405  H2413   0.950   .     S
C2406  C2407   1.500   .     S
C2407  C2409   1.390   .     S
C2407  C2473   1.390   .     S
C2408  C2409   1.390   .     D
C2408  H2414   0.950   .     S
C2408  C2472   1.390   .     S
C2409  H2415   0.950   .     S
N2410  N2411   1.360   .     S
N2410  Fe2916  2.091   .     S
N2411  Fe2482  2.139   .     S
H2416  C2419   0.750   .     S
H2416  C2420   0.750   .     S
C2417  C2419   1.360   .     S
C2417  N2423   1.360   .     D
C2417  H2425   0.950   .     S
C2418  C2419   1.360   .     S
C2418  N2424   1.360   .     D
C2418  H2426   0.950   .     S
C2419  C2420   1.500   .     S
C2420  C2422   1.390   .     S
C2420  C2460   1.390   .     S
C2421  C2422   1.390   .     D
C2421  H2427   0.950   .     S
C2421  C2459   1.390   .     S
C2422  H2428   0.950   .     S
N2423  N2424   1.360   .     S
N2423  Fe2483  2.091   .     S
N2424  Fe2481  2.139   .     S
H2429  C2432   0.750   .     S
H2429  C2433   0.750   .     S
C2430  C2432   1.360   .     S
C2430  N2436   1.360   .     D
C2430  H2438   0.950   .     S
C2431  C4160   1.360   .     S
C2431  N2437   1.360   .     D
C2431  H2439   0.950   .     S
C2432  C2433   1.500   .     S
C2433  C2435   1.390   .     S
C2434  C2435   1.390   .     D
C2434  H2440   0.950   .     S
C2435  H2441   0.950   .     S
N2437  N4164   1.360   .     S
N2437  Fe2484  2.139   .     S
H2442  C2445   0.750   .     S
H2442  C2446   0.750   .     S
C2443  C2445   1.360   .     S
C2443  N2449   1.360   .     D
C2443  H2451   0.950   .     S
C2444  C4173   1.360   .     S
C2444  N2450   1.360   .     D
C2444  H2452   0.950   .     S
C2445  C2446   1.500   .     S
C2446  C2448   1.390   .     S
C2447  C2448   1.390   .     D
C2447  H2453   0.950   .     S
C2448  H2454   0.950   .     S
N2449  Fe2481  2.091   .     S
N2450  N4177   1.360   .     S
N2450  Fe2483  2.139   .     S
H2455  C2458   0.750   .     S
H2455  C2459   0.750   .     S
C2456  C2458   1.360   .     S
C2456  N2462   1.360   .     D
C2456  H2464   0.950   .     S
C2457  C2458   1.360   .     S
C2457  N2463   1.360   .     D
C2457  H2465   0.950   .     S
C2458  C2459   1.500   .     S
C2459  C2461   1.390   .     S
C2460  C2461   1.390   .     D
C2460  H2466   0.950   .     S
C2461  H2467   0.950   .     S
N2462  N2463   1.360   .     S
N2463  Fe2484  2.139   .     S
H2468  C2471   0.750   .     S
H2468  C2472   0.750   .     S
C2469  C2471   1.360   .     S
C2469  N2475   1.360   .     D
C2469  H2477   0.950   .     S
C2470  C2471   1.360   .     S
C2470  N2476   1.360   .     D
C2470  H2478   0.950   .     S
C2471  C2472   1.500   .     S
C2472  C2474   1.390   .     S
C2473  C2474   1.390   .     D
C2473  H2479   0.950   .     S
C2474  H2480   0.950   .     S
N2475  N2476   1.360   .     S
N2475  Fe2589  2.091   .     S
N2476  Fe2591  2.139   .     S
Fe2482 N2868   2.091   .     S
Fe2482 N2894   2.091   .     S
H2485  C2488   0.750   .     S
H2485  C2489   0.750   .     S
C2486  C2488   1.360   .     S
C2486  N2492   1.360   .     D
C2486  H2494   0.950   .     S
C2487  N2493   1.360   .     D
C2487  H2495   0.950   .     S
C2488  C4215   1.360   .     S
C2488  C2489   1.500   .     S
C2489  C2491   1.390   .     S
C2489  C4283   1.390   .     S
C2490  C2491   1.390   .     D
C2490  H2496   0.950   .     S
C2490  C4282   1.390   .     S
C2491  H2497   0.950   .     S
N2492  N4221   1.360   .     S
N2492  Fe3024  2.091   .     S
N2493  Fe2590  2.139   .     S
H2498  C2501   0.750   .     S
H2498  C2502   0.750   .     S
C2499  C2501   1.360   .     S
C2499  N2505   1.360   .     D
C2499  H2507   0.950   .     S
C2500  N2506   1.360   .     D
C2500  H2508   0.950   .     S
C2501  C4228   1.360   .     S
C2501  C2502   1.500   .     S
C2502  C2504   1.390   .     S
C2502  C4270   1.390   .     S
C2503  C2504   1.390   .     D
C2503  H2509   0.950   .     S
C2503  C4269   1.390   .     S
C2504  H2510   0.950   .     S
N2505  N4234   1.360   .     S
N2505  Fe2267  2.091   1_655 S
N2506  Fe2265  2.139   1_655 S
H2511  C2514   0.750   .     S
H2511  C2515   0.750   .     S
C2512  C2514   1.360   .     S
C2512  N2518   1.360   .     D
C2512  H2520   0.950   .     S
C2513  C2514   1.360   .     S
C2513  N2519   1.360   .     D
C2513  H2521   0.950   .     S
C2514  C2515   1.500   .     S
C2515  C2517   1.390   .     S
C2515  C2581   1.390   .     S
C2516  C2517   1.390   .     D
C2516  H2522   0.950   .     S
C2516  C2580   1.390   .     S
C2517  H2523   0.950   .     S
N2518  N2519   1.360   .     S
N2518  Fe3024  2.091   .     S
N2519  Fe2590  2.139   .     S
H2524  C2527   0.750   .     S
H2524  C2528   0.750   .     S
C2525  C2527   1.360   .     S
C2525  N2531   1.360   .     D
C2525  H2533   0.950   .     S
C2526  C2527   1.360   .     S
C2526  N2532   1.360   .     D
C2526  H2534   0.950   .     S
C2527  C2528   1.500   .     S
C2528  C2530   1.390   .     S
C2528  C2568   1.390   .     S
C2529  C2530   1.390   .     D
C2529  H2535   0.950   .     S
C2529  C2567   1.390   .     S
C2530  H2536   0.950   .     S
N2531  N2532   1.360   .     S
N2531  Fe2591  2.091   .     S
N2532  Fe2589  2.139   .     S
H2537  C2540   0.750   .     S
H2537  C2541   0.750   .     S
C2538  C2540   1.360   .     S
C2538  N2544   1.360   .     D
C2538  H2546   0.950   .     S
C2539  C4268   1.360   .     S
C2539  N2545   1.360   .     D
C2539  H2547   0.950   .     S
C2540  C2541   1.500   .     S
C2541  C2543   1.390   .     S
C2542  C2543   1.390   .     D
C2542  H2548   0.950   .     S
C2543  H2549   0.950   .     S
N2545  N4272   1.360   .     S
N2545  Fe2592  2.139   .     S
H2550  C2553   0.750   .     S
H2550  C2554   0.750   .     S
C2551  C2553   1.360   .     S
C2551  N2557   1.360   .     D
C2551  H2559   0.950   .     S
C2552  C4281   1.360   .     S
C2552  N2558   1.360   .     D
C2552  H2560   0.950   .     S
C2553  C2554   1.500   .     S
C2554  C2556   1.390   .     S
C2555  C2556   1.390   .     D
C2555  H2561   0.950   .     S
C2556  H2562   0.950   .     S
N2557  Fe2589  2.091   .     S
N2558  N4285   1.360   .     S
N2558  Fe2591  2.139   .     S
H2563  C2566   0.750   .     S
H2563  C2567   0.750   .     S
C2564  C2566   1.360   .     S
C2564  N2570   1.360   .     D
C2564  H2572   0.950   .     S
C2565  C2566   1.360   .     S
C2565  N2571   1.360   .     D
C2565  H2573   0.950   .     S
C2566  C2567   1.500   .     S
C2567  C2569   1.390   .     S
C2568  C2569   1.390   .     D
C2568  H2574   0.950   .     S
C2569  H2575   0.950   .     S
N2570  N2571   1.360   .     S
N2571  Fe2592  2.139   .     S
H2576  C2579   0.750   .     S
H2576  C2580   0.750   .     S
C2577  C2579   1.360   .     S
C2577  N2583   1.360   .     D
C2577  H2585   0.950   .     S
C2578  C2579   1.360   .     S
C2578  N2584   1.360   .     D
C2578  H2586   0.950   .     S
C2579  C2580   1.500   .     S
C2580  C2582   1.390   .     S
C2581  C2582   1.390   .     D
C2581  H2587   0.950   .     S
C2582  H2588   0.950   .     S
N2583  N2584   1.360   .     S
N2583  Fe2265  2.091   1_655 S
N2584  Fe2267  2.139   1_655 S
Fe2590 N2976   2.091   .     S
Fe2590 N3002   2.091   .     S
H2593  C2596   0.750   .     S
H2593  C2597   0.750   .     S
C2594  C2596   1.360   .     S
C2594  N2600   1.360   .     D
C2594  H2602   0.950   .     S
C2595  N2601   1.360   .     D
C2595  H2603   0.950   .     S
C2596  C4323   1.360   .     S
C2596  C2597   1.500   .     S
C2597  C2599   1.390   .     S
C2597  C4391   1.390   .     S
C2598  C2599   1.390   .     D
C2598  H2604   0.950   .     S
C2598  C4390   1.390   .     S
C2599  H2605   0.950   .     S
N2600  N4329   1.360   .     S
N2600  Fe3132  2.091   .     S
N2601  Fe2698  2.139   .     S
H2606  C2609   0.750   .     S
H2606  C2610   0.750   .     S
C2607  C2609   1.360   .     S
C2607  N2613   1.360   .     D
C2607  H2615   0.950   .     S
C2608  N2614   1.360   .     D
C2608  H2616   0.950   .     S
C2609  C4336   1.360   .     S
C2609  C2610   1.500   .     S
C2610  C2612   1.390   .     S
C2610  C4378   1.390   .     S
C2611  C2612   1.390   .     D
C2611  H2617   0.950   .     S
C2611  C4377   1.390   .     S
C2612  H2618   0.950   .     S
N2613  N4342   1.360   .     S
N2613  Fe2807  2.091   .     S
N2614  Fe2805  2.139   .     S
H2619  C2622   0.750   .     S
H2619  C2623   0.750   .     S
C2620  C2622   1.360   .     S
C2620  N2626   1.360   .     D
C2620  H2628   0.950   .     S
C2621  C2622   1.360   .     S
C2621  N2627   1.360   .     D
C2621  H2629   0.950   .     S
C2622  C2623   1.500   .     S
C2623  C2625   1.390   .     S
C2623  C2689   1.390   .     S
C2624  C2625   1.390   .     D
C2624  H2630   0.950   .     S
C2624  C2688   1.390   .     S
C2625  H2631   0.950   .     S
N2626  N2627   1.360   .     S
N2626  Fe3132  2.091   .     S
N2627  Fe2698  2.139   .     S
H2632  C2635   0.750   .     S
H2632  C2636   0.750   .     S
C2633  C2635   1.360   .     S
C2633  N2639   1.360   .     D
C2633  H2641   0.950   .     S
C2634  C2635   1.360   .     S
C2634  N2640   1.360   .     D
C2634  H2642   0.950   .     S
C2635  C2636   1.500   .     S
C2636  C2638   1.390   .     S
C2636  C2676   1.390   .     S
C2637  C2638   1.390   .     D
C2637  H2643   0.950   .     S
C2637  C2675   1.390   .     S
C2638  H2644   0.950   .     S
N2639  N2640   1.360   .     S
N2639  Fe2699  2.091   .     S
N2640  Fe2697  2.139   .     S
H2645  C2648   0.750   .     S
H2645  C2649   0.750   .     S
C2646  C2648   1.360   .     S
C2646  N2652   1.360   .     D
C2646  H2654   0.950   .     S
C2647  C4376   1.360   .     S
C2647  N2653   1.360   .     D
C2647  H2655   0.950   .     S
C2648  C2649   1.500   .     S
C2649  C2651   1.390   .     S
C2650  C2651   1.390   .     D
C2650  H2656   0.950   .     S
C2651  H2657   0.950   .     S
N2653  N4380   1.360   .     S
N2653  Fe2700  2.139   .     S
H2658  C2661   0.750   .     S
H2658  C2662   0.750   .     S
C2659  C2661   1.360   .     S
C2659  N2665   1.360   .     D
C2659  H2667   0.950   .     S
C2660  C4389   1.360   .     S
C2660  N2666   1.360   .     D
C2660  H2668   0.950   .     S
C2661  C2662   1.500   .     S
C2662  C2664   1.390   .     S
C2663  C2664   1.390   .     D
C2663  H2669   0.950   .     S
C2664  H2670   0.950   .     S
N2665  Fe2697  2.091   .     S
N2666  N4393   1.360   .     S
N2666  Fe2699  2.139   .     S
H2671  C2674   0.750   .     S
H2671  C2675   0.750   .     S
C2672  C2674   1.360   .     S
C2672  N2678   1.360   .     D
C2672  H2680   0.950   .     S
C2673  C2674   1.360   .     S
C2673  N2679   1.360   .     D
C2673  H2681   0.950   .     S
C2674  C2675   1.500   .     S
C2675  C2677   1.390   .     S
C2676  C2677   1.390   .     D
C2676  H2682   0.950   .     S
C2677  H2683   0.950   .     S
N2678  N2679   1.360   .     S
N2679  Fe2700  2.139   .     S
H2684  C2687   0.750   .     S
H2684  C2688   0.750   .     S
C2685  C2687   1.360   .     S
C2685  N2691   1.360   .     D
C2685  H2693   0.950   .     S
C2686  C2687   1.360   .     S
C2686  N2692   1.360   .     D
C2686  H2694   0.950   .     S
C2687  C2688   1.500   .     S
C2688  C2690   1.390   .     S
C2689  C2690   1.390   .     D
C2689  H2695   0.950   .     S
C2690  H2696   0.950   .     S
N2691  N2692   1.360   .     S
N2691  Fe2805  2.091   .     S
N2692  Fe2807  2.139   .     S
Fe2697 N3015   2.091   1_455 S
Fe2697 N2938   2.139   1_455 S
Fe2698 N3084   2.091   .     S
Fe2698 N3110   2.091   .     S
Fe2699 N2937   2.091   1_455 S
Fe2699 N3016   2.139   1_455 S
H2701  C2704   0.750   .     S
H2701  C2705   0.750   .     S
C2702  C2704   1.360   .     S
C2702  N2708   1.360   .     D
C2702  H2710   0.950   .     S
C2703  N2709   1.360   .     D
C2703  H2711   0.950   .     S
C2704  C4431   1.360   .     S
C2704  C2705   1.500   .     S
C2705  C2707   1.390   .     S
C2705  C4499   1.390   .     S
C2706  C2707   1.390   .     D
C2706  H2712   0.950   .     S
C2706  C4498   1.390   .     S
C2707  H2713   0.950   .     S
N2708  N4437   1.360   .     S
N2708  Fe3240  2.091   .     S
N2709  Fe2806  2.139   .     S
H2714  C2717   0.750   .     S
H2714  C2718   0.750   .     S
C2715  C2717   1.360   .     S
C2715  N2721   1.360   .     D
C2715  H2723   0.950   .     S
C2716  N2722   1.360   .     D
C2716  H2724   0.950   .     S
C2717  C4444   1.360   .     S
C2717  C2718   1.500   .     S
C2718  C2720   1.390   .     S
C2718  C4486   1.390   .     S
C2719  C2720   1.390   .     D
C2719  H2725   0.950   .     S
C2719  C4485   1.390   .     S
C2720  H2726   0.950   .     S
N2721  N4450   1.360   .     S
N2721  Fe2915  2.091   .     S
N2722  Fe2913  2.139   .     S
H2727  C2730   0.750   .     S
H2727  C2731   0.750   .     S
C2728  C2730   1.360   .     S
C2728  N2734   1.360   .     D
C2728  H2736   0.950   .     S
C2729  C2730   1.360   .     S
C2729  N2735   1.360   .     D
C2729  H2737   0.950   .     S
C2730  C2731   1.500   .     S
C2731  C2733   1.390   .     S
C2731  C2797   1.390   .     S
C2732  C2733   1.390   .     D
C2732  H2738   0.950   .     S
C2732  C2796   1.390   .     S
C2733  H2739   0.950   .     S
N2734  N2735   1.360   .     S
N2734  Fe3240  2.091   .     S
N2735  Fe2806  2.139   .     S
H2740  C2743   0.750   .     S
H2740  C2744   0.750   .     S
C2741  C2743   1.360   .     S
C2741  N2747   1.360   .     D
C2741  H2749   0.950   .     S
C2742  C2743   1.360   .     S
C2742  N2748   1.360   .     D
C2742  H2750   0.950   .     S
C2743  C2744   1.500   .     S
C2744  C2746   1.390   .     S
C2744  C2784   1.390   .     S
C2745  C2746   1.390   .     D
C2745  H2751   0.950   .     S
C2745  C2783   1.390   .     S
C2746  H2752   0.950   .     S
N2747  N2748   1.360   .     S
N2747  Fe2807  2.091   .     S
N2748  Fe2805  2.139   .     S
H2753  C2756   0.750   .     S
H2753  C2757   0.750   .     S
C2754  C2756   1.360   .     S
C2754  N2760   1.360   .     D
C2754  H2762   0.950   .     S
C2755  C4484   1.360   .     S
C2755  N2761   1.360   .     D
C2755  H2763   0.950   .     S
C2756  C2757   1.500   .     S
C2757  C2759   1.390   .     S
C2758  C2759   1.390   .     D
C2758  H2764   0.950   .     S
C2759  H2765   0.950   .     S
N2761  N4488   1.360   .     S
N2761  Fe2808  2.139   .     S
H2766  C2769   0.750   .     S
H2766  C2770   0.750   .     S
C2767  C2769   1.360   .     S
C2767  N2773   1.360   .     D
C2767  H2775   0.950   .     S
C2768  C4497   1.360   .     S
C2768  N2774   1.360   .     D
C2768  H2776   0.950   .     S
C2769  C2770   1.500   .     S
C2770  C2772   1.390   .     S
C2771  C2772   1.390   .     D
C2771  H2777   0.950   .     S
C2772  H2778   0.950   .     S
N2773  Fe2805  2.091   .     S
N2774  N4501   1.360   .     S
N2774  Fe2807  2.139   .     S
H2779  C2782   0.750   .     S
H2779  C2783   0.750   .     S
C2780  C2782   1.360   .     S
C2780  N2786   1.360   .     D
C2780  H2788   0.950   .     S
C2781  C2782   1.360   .     S
C2781  N2787   1.360   .     D
C2781  H2789   0.950   .     S
C2782  C2783   1.500   .     S
C2783  C2785   1.390   .     S
C2784  C2785   1.390   .     D
C2784  H2790   0.950   .     S
C2785  H2791   0.950   .     S
N2786  N2787   1.360   .     S
N2787  Fe2808  2.139   .     S
H2792  C2795   0.750   .     S
H2792  C2796   0.750   .     S
C2793  C2795   1.360   .     S
C2793  N2799   1.360   .     D
C2793  H2801   0.950   .     S
C2794  C2795   1.360   .     S
C2794  N2800   1.360   .     D
C2794  H2802   0.950   .     S
C2795  C2796   1.500   .     S
C2796  C2798   1.390   .     S
C2797  C2798   1.390   .     D
C2797  H2803   0.950   .     S
C2798  H2804   0.950   .     S
N2799  N2800   1.360   .     S
N2799  Fe2913  2.091   .     S
N2800  Fe2915  2.139   .     S
Fe2806 N3192   2.091   .     S
Fe2806 N3218   2.091   .     S
H2809  C2812   0.750   .     S
H2809  C2813   0.750   .     S
C2810  C2812   1.360   .     S
C2810  N2816   1.360   .     D
C2810  H2818   0.950   .     S
C2811  N2817   1.360   .     D
C2811  H2819   0.950   .     S
C2812  C4539   1.360   .     S
C2812  C2813   1.500   .     S
C2813  C2815   1.390   .     S
C2813  C4607   1.390   .     S
C2814  C2815   1.390   .     D
C2814  H2820   0.950   .     S
C2814  C4606   1.390   .     S
C2815  H2821   0.950   .     S
N2816  N4545   1.360   .     S
N2816  Fe3348  2.091   .     S
N2817  Fe2914  2.139   .     S
H2822  C2825   0.750   .     S
H2822  C2826   0.750   .     S
C2823  C2825   1.360   .     S
C2823  N2829   1.360   .     D
C2823  H2831   0.950   .     S
C2824  N2830   1.360   .     D
C2824  H2832   0.950   .     S
C2825  C4552   1.360   .     S
C2825  C2826   1.500   .     S
C2826  C2828   1.390   .     S
C2826  C4594   1.390   .     S
C2827  C2828   1.390   .     D
C2827  H2833   0.950   .     S
C2827  C4593   1.390   .     S
C2828  H2834   0.950   .     S
N2829  N4558   1.360   .     S
N2829  Fe3023  2.091   .     S
N2830  Fe3021  2.139   .     S
H2835  C2838   0.750   .     S
H2835  C2839   0.750   .     S
C2836  C2838   1.360   .     S
C2836  N2842   1.360   .     D
C2836  H2844   0.950   .     S
C2837  C2838   1.360   .     S
C2837  N2843   1.360   .     D
C2837  H2845   0.950   .     S
C2838  C2839   1.500   .     S
C2839  C2841   1.390   .     S
C2839  C2905   1.390   .     S
C2840  C2841   1.390   .     D
C2840  H2846   0.950   .     S
C2840  C2904   1.390   .     S
C2841  H2847   0.950   .     S
N2842  N2843   1.360   .     S
N2842  Fe3348  2.091   .     S
N2843  Fe2914  2.139   .     S
H2848  C2851   0.750   .     S
H2848  C2852   0.750   .     S
C2849  C2851   1.360   .     S
C2849  N2855   1.360   .     D
C2849  H2857   0.950   .     S
C2850  C2851   1.360   .     S
C2850  N2856   1.360   .     D
C2850  H2858   0.950   .     S
C2851  C2852   1.500   .     S
C2852  C2854   1.390   .     S
C2852  C2892   1.390   .     S
C2853  C2854   1.390   .     D
C2853  H2859   0.950   .     S
C2853  C2891   1.390   .     S
C2854  H2860   0.950   .     S
N2855  N2856   1.360   .     S
N2855  Fe2915  2.091   .     S
N2856  Fe2913  2.139   .     S
H2861  C2864   0.750   .     S
H2861  C2865   0.750   .     S
C2862  C2864   1.360   .     S
C2862  N2868   1.360   .     D
C2862  H2870   0.950   .     S
C2863  C4592   1.360   .     S
C2863  N2869   1.360   .     D
C2863  H2871   0.950   .     S
C2864  C2865   1.500   .     S
C2865  C2867   1.390   .     S
C2866  C2867   1.390   .     D
C2866  H2872   0.950   .     S
C2867  H2873   0.950   .     S
N2869  N4596   1.360   .     S
N2869  Fe2916  2.139   .     S
H2874  C2877   0.750   .     S
H2874  C2878   0.750   .     S
C2875  C2877   1.360   .     S
C2875  N2881   1.360   .     D
C2875  H2883   0.950   .     S
C2876  C4605   1.360   .     S
C2876  N2882   1.360   .     D
C2876  H2884   0.950   .     S
C2877  C2878   1.500   .     S
C2878  C2880   1.390   .     S
C2879  C2880   1.390   .     D
C2879  H2885   0.950   .     S
C2880  H2886   0.950   .     S
N2881  Fe2913  2.091   .     S
N2882  N4609   1.360   .     S
N2882  Fe2915  2.139   .     S
H2887  C2890   0.750   .     S
H2887  C2891   0.750   .     S
C2888  C2890   1.360   .     S
C2888  N2894   1.360   .     D
C2888  H2896   0.950   .     S
C2889  C2890   1.360   .     S
C2889  N2895   1.360   .     D
C2889  H2897   0.950   .     S
C2890  C2891   1.500   .     S
C2891  C2893   1.390   .     S
C2892  C2893   1.390   .     D
C2892  H2898   0.950   .     S
C2893  H2899   0.950   .     S
N2894  N2895   1.360   .     S
N2895  Fe2916  2.139   .     S
H2900  C2903   0.750   .     S
H2900  C2904   0.750   .     S
C2901  C2903   1.360   .     S
C2901  N2907   1.360   .     D
C2901  H2909   0.950   .     S
C2902  C2903   1.360   .     S
C2902  N2908   1.360   .     D
C2902  H2910   0.950   .     S
C2903  C2904   1.500   .     S
C2904  C2906   1.390   .     S
C2905  C2906   1.390   .     D
C2905  H2911   0.950   .     S
C2906  H2912   0.950   .     S
N2907  N2908   1.360   .     S
N2907  Fe3021  2.091   .     S
N2908  Fe3023  2.139   .     S
Fe2914 N3300   2.091   .     S
Fe2914 N3326   2.091   .     S
H2917  C2920   0.750   .     S
H2917  C2921   0.750   .     S
C2918  C2920   1.360   .     S
C2918  N2924   1.360   .     D
C2918  H2926   0.950   .     S
C2919  N2925   1.360   .     D
C2919  H2927   0.950   .     S
C2920  C4647   1.360   .     S
C2920  C2921   1.500   .     S
C2921  C2923   1.390   .     S
C2921  C4715   1.390   .     S
C2922  C2923   1.390   .     D
C2922  H2928   0.950   .     S
C2922  C4714   1.390   .     S
C2923  H2929   0.950   .     S
N2924  N4653   1.360   .     S
N2924  Fe3456  2.091   .     S
N2925  Fe3022  2.139   .     S
H2930  C2933   0.750   .     S
H2930  C2934   0.750   .     S
C2931  C2933   1.360   .     S
C2931  N2937   1.360   .     D
C2931  H2939   0.950   .     S
C2932  N2938   1.360   .     D
C2932  H2940   0.950   .     S
C2933  C4660   1.360   .     S
C2933  C2934   1.500   .     S
C2934  C2936   1.390   .     S
C2934  C4702   1.390   .     S
C2935  C2936   1.390   .     D
C2935  H2941   0.950   .     S
C2935  C4701   1.390   .     S
C2936  H2942   0.950   .     S
N2937  N4666   1.360   .     S
N2937  Fe2699  2.091   1_655 S
N2938  Fe2697  2.139   1_655 S
H2943  C2946   0.750   .     S
H2943  C2947   0.750   .     S
C2944  C2946   1.360   .     S
C2944  N2950   1.360   .     D
C2944  H2952   0.950   .     S
C2945  C2946   1.360   .     S
C2945  N2951   1.360   .     D
C2945  H2953   0.950   .     S
C2946  C2947   1.500   .     S
C2947  C2949   1.390   .     S
C2947  C3013   1.390   .     S
C2948  C2949   1.390   .     D
C2948  H2954   0.950   .     S
C2948  C3012   1.390   .     S
C2949  H2955   0.950   .     S
N2950  N2951   1.360   .     S
N2950  Fe3456  2.091   .     S
N2951  Fe3022  2.139   .     S
H2956  C2959   0.750   .     S
H2956  C2960   0.750   .     S
C2957  C2959   1.360   .     S
C2957  N2963   1.360   .     D
C2957  H2965   0.950   .     S
C2958  C2959   1.360   .     S
C2958  N2964   1.360   .     D
C2958  H2966   0.950   .     S
C2959  C2960   1.500   .     S
C2960  C2962   1.390   .     S
C2960  C3000   1.390   .     S
C2961  C2962   1.390   .     D
C2961  H2967   0.950   .     S
C2961  C2999   1.390   .     S
C2962  H2968   0.950   .     S
N2963  N2964   1.360   .     S
N2963  Fe3023  2.091   .     S
N2964  Fe3021  2.139   .     S
H2969  C2972   0.750   .     S
H2969  C2973   0.750   .     S
C2970  C2972   1.360   .     S
C2970  N2976   1.360   .     D
C2970  H2978   0.950   .     S
C2971  C4700   1.360   .     S
C2971  N2977   1.360   .     D
C2971  H2979   0.950   .     S
C2972  C2973   1.500   .     S
C2973  C2975   1.390   .     S
C2974  C2975   1.390   .     D
C2974  H2980   0.950   .     S
C2975  H2981   0.950   .     S
N2977  N4704   1.360   .     S
N2977  Fe3024  2.139   .     S
H2982  C2985   0.750   .     S
H2982  C2986   0.750   .     S
C2983  C2985   1.360   .     S
C2983  N2989   1.360   .     D
C2983  H2991   0.950   .     S
C2984  C4713   1.360   .     S
C2984  N2990   1.360   .     D
C2984  H2992   0.950   .     S
C2985  C2986   1.500   .     S
C2986  C2988   1.390   .     S
C2987  C2988   1.390   .     D
C2987  H2993   0.950   .     S
C2988  H2994   0.950   .     S
N2989  Fe3021  2.091   .     S
N2990  N4717   1.360   .     S
N2990  Fe3023  2.139   .     S
H2995  C2998   0.750   .     S
H2995  C2999   0.750   .     S
C2996  C2998   1.360   .     S
C2996  N3002   1.360   .     D
C2996  H3004   0.950   .     S
C2997  C2998   1.360   .     S
C2997  N3003   1.360   .     D
C2997  H3005   0.950   .     S
C2998  C2999   1.500   .     S
C2999  C3001   1.390   .     S
C3000  C3001   1.390   .     D
C3000  H3006   0.950   .     S
C3001  H3007   0.950   .     S
N3002  N3003   1.360   .     S
N3003  Fe3024  2.139   .     S
H3008  C3011   0.750   .     S
H3008  C3012   0.750   .     S
C3009  C3011   1.360   .     S
C3009  N3015   1.360   .     D
C3009  H3017   0.950   .     S
C3010  C3011   1.360   .     S
C3010  N3016   1.360   .     D
C3010  H3018   0.950   .     S
C3011  C3012   1.500   .     S
C3012  C3014   1.390   .     S
C3013  C3014   1.390   .     D
C3013  H3019   0.950   .     S
C3014  H3020   0.950   .     S
N3015  N3016   1.360   .     S
N3015  Fe2697  2.091   1_655 S
N3016  Fe2699  2.139   1_655 S
Fe3022 N3408   2.091   .     S
Fe3022 N3434   2.091   .     S
H3025  C3028   0.750   .     S
H3025  C3029   0.750   .     S
C3026  C3028   1.360   .     S
C3026  N3032   1.360   .     D
C3026  H3034   0.950   .     S
C3027  N3033   1.360   .     D
C3027  H3035   0.950   .     S
C3028  C4755   1.360   .     S
C3028  C3029   1.500   .     S
C3029  C3031   1.390   .     S
C3029  C4823   1.390   .     S
C3030  C3031   1.390   .     D
C3030  H3036   0.950   .     S
C3030  C4822   1.390   .     S
C3031  H3037   0.950   .     S
N3032  N4761   1.360   .     S
N3032  Fe1836  2.091   1_565 S
N3033  Fe3130  2.139   .     S
H3038  C3041   0.750   .     S
H3038  C3042   0.750   .     S
C3039  C3041   1.360   .     S
C3039  N3045   1.360   .     D
C3039  H3047   0.950   .     S
C3040  N3046   1.360   .     D
C3040  H3048   0.950   .     S
C3041  C4768   1.360   .     S
C3041  C3042   1.500   .     S
C3042  C3044   1.390   .     S
C3042  C4810   1.390   .     S
C3043  C3044   1.390   .     D
C3043  H3049   0.950   .     S
C3043  C4809   1.390   .     S
C3044  H3050   0.950   .     S
N3045  N4774   1.360   .     S
N3045  Fe3239  2.091   .     S
N3046  Fe3237  2.139   .     S
H3051  C3054   0.750   .     S
H3051  C3055   0.750   .     S
C3052  C3054   1.360   .     S
C3052  N3058   1.360   .     D
C3052  H3060   0.950   .     S
C3053  C3054   1.360   .     S
C3053  N3059   1.360   .     D
C3053  H3061   0.950   .     S
C3054  C3055   1.500   .     S
C3055  C3057   1.390   .     S
C3055  C3121   1.390   .     S
C3056  C3057   1.390   .     D
C3056  H3062   0.950   .     S
C3056  C3120   1.390   .     S
C3057  H3063   0.950   .     S
N3058  N3059   1.360   .     S
N3058  Fe1836  2.091   1_565 S
N3059  Fe3130  2.139   .     S
H3064  C3067   0.750   .     S
H3064  C3068   0.750   .     S
C3065  C3067   1.360   .     S
C3065  N3071   1.360   .     D
C3065  H3073   0.950   .     S
C3066  C3067   1.360   .     S
C3066  N3072   1.360   .     D
C3066  H3074   0.950   .     S
C3067  C3068   1.500   .     S
C3068  C3070   1.390   .     S
C3068  C3108   1.390   .     S
C3069  C3070   1.390   .     D
C3069  H3075   0.950   .     S
C3069  C3107   1.390   .     S
C3070  H3076   0.950   .     S
N3071  N3072   1.360   .     S
N3071  Fe3131  2.091   .     S
N3072  Fe3129  2.139   .     S
H3077  C3080   0.750   .     S
H3077  C3081   0.750   .     S
C3078  C3080   1.360   .     S
C3078  N3084   1.360   .     D
C3078  H3086   0.950   .     S
C3079  C4808   1.360   .     S
C3079  N3085   1.360   .     D
C3079  H3087   0.950   .     S
C3080  C3081   1.500   .     S
C3081  C3083   1.390   .     S
C3082  C3083   1.390   .     D
C3082  H3088   0.950   .     S
C3083  H3089   0.950   .     S
N3085  N4812   1.360   .     S
N3085  Fe3132  2.139   .     S
H3090  C3093   0.750   .     S
H3090  C3094   0.750   .     S
C3091  C3093   1.360   .     S
C3091  N3097   1.360   .     D
C3091  H3099   0.950   .     S
C3092  C4821   1.360   .     S
C3092  N3098   1.360   .     D
C3092  H3100   0.950   .     S
C3093  C3094   1.500   .     S
C3094  C3096   1.390   .     S
C3095  C3096   1.390   .     D
C3095  H3101   0.950   .     S
C3096  H3102   0.950   .     S
N3097  Fe3129  2.091   .     S
N3098  N4825   1.360   .     S
N3098  Fe3131  2.139   .     S
H3103  C3106   0.750   .     S
H3103  C3107   0.750   .     S
C3104  C3106   1.360   .     S
C3104  N3110   1.360   .     D
C3104  H3112   0.950   .     S
C3105  C3106   1.360   .     S
C3105  N3111   1.360   .     D
C3105  H3113   0.950   .     S
C3106  C3107   1.500   .     S
C3107  C3109   1.390   .     S
C3108  C3109   1.390   .     D
C3108  H3114   0.950   .     S
C3109  H3115   0.950   .     S
N3110  N3111   1.360   .     S
N3111  Fe3132  2.139   .     S
H3116  C3119   0.750   .     S
H3116  C3120   0.750   .     S
C3117  C3119   1.360   .     S
C3117  N3123   1.360   .     D
C3117  H3125   0.950   .     S
C3118  C3119   1.360   .     S
C3118  N3124   1.360   .     D
C3118  H3126   0.950   .     S
C3119  C3120   1.500   .     S
C3120  C3122   1.390   .     S
C3121  C3122   1.390   .     D
C3121  H3127   0.950   .     S
C3122  H3128   0.950   .     S
N3123  N3124   1.360   .     S
N3123  Fe3237  2.091   .     S
N3124  Fe3239  2.139   .     S
Fe3129 N3447   2.091   1_455 S
Fe3129 N3370   2.139   1_455 S
Fe3130 N1788   2.091   1_565 S
Fe3130 N1814   2.091   1_565 S
Fe3131 N3369   2.091   1_455 S
Fe3131 N3448   2.139   1_455 S
H3133  C3136   0.750   .     S
H3133  C3137   0.750   .     S
C3134  C3136   1.360   .     S
C3134  N3140   1.360   .     D
C3134  H3142   0.950   .     S
C3135  N3141   1.360   .     D
C3135  H3143   0.950   .     S
C3136  C4863   1.360   .     S
C3136  C3137   1.500   .     S
C3137  C3139   1.390   .     S
C3137  C4931   1.390   .     S
C3138  C3139   1.390   .     D
C3138  H3144   0.950   .     S
C3138  C4930   1.390   .     S
C3139  H3145   0.950   .     S
N3140  N4869   1.360   .     S
N3140  Fe1944  2.091   1_565 S
N3141  Fe3238  2.139   .     S
H3146  C3149   0.750   .     S
H3146  C3150   0.750   .     S
C3147  C3149   1.360   .     S
C3147  N3153   1.360   .     D
C3147  H3155   0.950   .     S
C3148  N3154   1.360   .     D
C3148  H3156   0.950   .     S
C3149  C4876   1.360   .     S
C3149  C3150   1.500   .     S
C3150  C3152   1.390   .     S
C3150  C4918   1.390   .     S
C3151  C3152   1.390   .     D
C3151  H3157   0.950   .     S
C3151  C4917   1.390   .     S
C3152  H3158   0.950   .     S
N3153  N4882   1.360   .     S
N3153  Fe3347  2.091   .     S
N3154  Fe3345  2.139   .     S
H3159  C3162   0.750   .     S
H3159  C3163   0.750   .     S
C3160  C3162   1.360   .     S
C3160  N3166   1.360   .     D
C3160  H3168   0.950   .     S
C3161  C3162   1.360   .     S
C3161  N3167   1.360   .     D
C3161  H3169   0.950   .     S
C3162  C3163   1.500   .     S
C3163  C3165   1.390   .     S
C3163  C3229   1.390   .     S
C3164  C3165   1.390   .     D
C3164  H3170   0.950   .     S
C3164  C3228   1.390   .     S
C3165  H3171   0.950   .     S
N3166  N3167   1.360   .     S
N3166  Fe1944  2.091   1_565 S
N3167  Fe3238  2.139   .     S
H3172  C3175   0.750   .     S
H3172  C3176   0.750   .     S
C3173  C3175   1.360   .     S
C3173  N3179   1.360   .     D
C3173  H3181   0.950   .     S
C3174  C3175   1.360   .     S
C3174  N3180   1.360   .     D
C3174  H3182   0.950   .     S
C3175  C3176   1.500   .     S
C3176  C3178   1.390   .     S
C3176  C3216   1.390   .     S
C3177  C3178   1.390   .     D
C3177  H3183   0.950   .     S
C3177  C3215   1.390   .     S
C3178  H3184   0.950   .     S
N3179  N3180   1.360   .     S
N3179  Fe3239  2.091   .     S
N3180  Fe3237  2.139   .     S
H3185  C3188   0.750   .     S
H3185  C3189   0.750   .     S
C3186  C3188   1.360   .     S
C3186  N3192   1.360   .     D
C3186  H3194   0.950   .     S
C3187  C4916   1.360   .     S
C3187  N3193   1.360   .     D
C3187  H3195   0.950   .     S
C3188  C3189   1.500   .     S
C3189  C3191   1.390   .     S
C3190  C3191   1.390   .     D
C3190  H3196   0.950   .     S
C3191  H3197   0.950   .     S
N3193  N4920   1.360   .     S
N3193  Fe3240  2.139   .     S
H3198  C3201   0.750   .     S
H3198  C3202   0.750   .     S
C3199  C3201   1.360   .     S
C3199  N3205   1.360   .     D
C3199  H3207   0.950   .     S
C3200  C4929   1.360   .     S
C3200  N3206   1.360   .     D
C3200  H3208   0.950   .     S
C3201  C3202   1.500   .     S
C3202  C3204   1.390   .     S
C3203  C3204   1.390   .     D
C3203  H3209   0.950   .     S
C3204  H3210   0.950   .     S
N3205  Fe3237  2.091   .     S
N3206  N4933   1.360   .     S
N3206  Fe3239  2.139   .     S
H3211  C3214   0.750   .     S
H3211  C3215   0.750   .     S
C3212  C3214   1.360   .     S
C3212  N3218   1.360   .     D
C3212  H3220   0.950   .     S
C3213  C3214   1.360   .     S
C3213  N3219   1.360   .     D
C3213  H3221   0.950   .     S
C3214  C3215   1.500   .     S
C3215  C3217   1.390   .     S
C3216  C3217   1.390   .     D
C3216  H3222   0.950   .     S
C3217  H3223   0.950   .     S
N3218  N3219   1.360   .     S
N3219  Fe3240  2.139   .     S
H3224  C3227   0.750   .     S
H3224  C3228   0.750   .     S
C3225  C3227   1.360   .     S
C3225  N3231   1.360   .     D
C3225  H3233   0.950   .     S
C3226  C3227   1.360   .     S
C3226  N3232   1.360   .     D
C3226  H3234   0.950   .     S
C3227  C3228   1.500   .     S
C3228  C3230   1.390   .     S
C3229  C3230   1.390   .     D
C3229  H3235   0.950   .     S
C3230  H3236   0.950   .     S
N3231  N3232   1.360   .     S
N3231  Fe3345  2.091   .     S
N3232  Fe3347  2.139   .     S
Fe3238 N1896   2.091   1_565 S
Fe3238 N1922   2.091   1_565 S
H3241  C3244   0.750   .     S
H3241  C3245   0.750   .     S
C3242  C3244   1.360   .     S
C3242  N3248   1.360   .     D
C3242  H3250   0.950   .     S
C3243  N3249   1.360   .     D
C3243  H3251   0.950   .     S
C3244  C4971   1.360   .     S
C3244  C3245   1.500   .     S
C3245  C3247   1.390   .     S
C3245  C5039   1.390   .     S
C3246  C3247   1.390   .     D
C3246  H3252   0.950   .     S
C3246  C5038   1.390   .     S
C3247  H3253   0.950   .     S
N3248  N4977   1.360   .     S
N3248  Fe2052  2.091   1_565 S
N3249  Fe3346  2.139   .     S
H3254  C3257   0.750   .     S
H3254  C3258   0.750   .     S
C3255  C3257   1.360   .     S
C3255  N3261   1.360   .     D
C3255  H3263   0.950   .     S
C3256  N3262   1.360   .     D
C3256  H3264   0.950   .     S
C3257  C4984   1.360   .     S
C3257  C3258   1.500   .     S
C3258  C3260   1.390   .     S
C3258  C5026   1.390   .     S
C3259  C3260   1.390   .     D
C3259  H3265   0.950   .     S
C3259  C5025   1.390   .     S
C3260  H3266   0.950   .     S
N3261  N4990   1.360   .     S
N3261  Fe3455  2.091   .     S
N3262  Fe3453  2.139   .     S
H3267  C3270   0.750   .     S
H3267  C3271   0.750   .     S
C3268  C3270   1.360   .     S
C3268  N3274   1.360   .     D
C3268  H3276   0.950   .     S
C3269  C3270   1.360   .     S
C3269  N3275   1.360   .     D
C3269  H3277   0.950   .     S
C3270  C3271   1.500   .     S
C3271  C3273   1.390   .     S
C3271  C3337   1.390   .     S
C3272  C3273   1.390   .     D
C3272  H3278   0.950   .     S
C3272  C3336   1.390   .     S
C3273  H3279   0.950   .     S
N3274  N3275   1.360   .     S
N3274  Fe2052  2.091   1_565 S
N3275  Fe3346  2.139   .     S
H3280  C3283   0.750   .     S
H3280  C3284   0.750   .     S
C3281  C3283   1.360   .     S
C3281  N3287   1.360   .     D
C3281  H3289   0.950   .     S
C3282  C3283   1.360   .     S
C3282  N3288   1.360   .     D
C3282  H3290   0.950   .     S
C3283  C3284   1.500   .     S
C3284  C3286   1.390   .     S
C3284  C3324   1.390   .     S
C3285  C3286   1.390   .     D
C3285  H3291   0.950   .     S
C3285  C3323   1.390   .     S
C3286  H3292   0.950   .     S
N3287  N3288   1.360   .     S
N3287  Fe3347  2.091   .     S
N3288  Fe3345  2.139   .     S
H3293  C3296   0.750   .     S
H3293  C3297   0.750   .     S
C3294  C3296   1.360   .     S
C3294  N3300   1.360   .     D
C3294  H3302   0.950   .     S
C3295  C5024   1.360   .     S
C3295  N3301   1.360   .     D
C3295  H3303   0.950   .     S
C3296  C3297   1.500   .     S
C3297  C3299   1.390   .     S
C3298  C3299   1.390   .     D
C3298  H3304   0.950   .     S
C3299  H3305   0.950   .     S
N3301  N5028   1.360   .     S
N3301  Fe3348  2.139   .     S
H3306  C3309   0.750   .     S
H3306  C3310   0.750   .     S
C3307  C3309   1.360   .     S
C3307  N3313   1.360   .     D
C3307  H3315   0.950   .     S
C3308  C5037   1.360   .     S
C3308  N3314   1.360   .     D
C3308  H3316   0.950   .     S
C3309  C3310   1.500   .     S
C3310  C3312   1.390   .     S
C3311  C3312   1.390   .     D
C3311  H3317   0.950   .     S
C3312  H3318   0.950   .     S
N3313  Fe3345  2.091   .     S
N3314  N5041   1.360   .     S
N3314  Fe3347  2.139   .     S
H3319  C3322   0.750   .     S
H3319  C3323   0.750   .     S
C3320  C3322   1.360   .     S
C3320  N3326   1.360   .     D
C3320  H3328   0.950   .     S
C3321  C3322   1.360   .     S
C3321  N3327   1.360   .     D
C3321  H3329   0.950   .     S
C3322  C3323   1.500   .     S
C3323  C3325   1.390   .     S
C3324  C3325   1.390   .     D
C3324  H3330   0.950   .     S
C3325  H3331   0.950   .     S
N3326  N3327   1.360   .     S
N3327  Fe3348  2.139   .     S
H3332  C3335   0.750   .     S
H3332  C3336   0.750   .     S
C3333  C3335   1.360   .     S
C3333  N3339   1.360   .     D
C3333  H3341   0.950   .     S
C3334  C3335   1.360   .     S
C3334  N3340   1.360   .     D
C3334  H3342   0.950   .     S
C3335  C3336   1.500   .     S
C3336  C3338   1.390   .     S
C3337  C3338   1.390   .     D
C3337  H3343   0.950   .     S
C3338  H3344   0.950   .     S
N3339  N3340   1.360   .     S
N3339  Fe3453  2.091   .     S
N3340  Fe3455  2.139   .     S
Fe3346 N2004   2.091   1_565 S
Fe3346 N2030   2.091   1_565 S
H3349  C3352   0.750   .     S
H3349  C3353   0.750   .     S
C3350  C3352   1.360   .     S
C3350  N3356   1.360   .     D
C3350  H3358   0.950   .     S
C3351  N3357   1.360   .     D
C3351  H3359   0.950   .     S
C3352  C5079   1.360   .     S
C3352  C3353   1.500   .     S
C3353  C3355   1.390   .     S
C3353  C5147   1.390   .     S
C3354  C3355   1.390   .     D
C3354  H3360   0.950   .     S
C3354  C5146   1.390   .     S
C3355  H3361   0.950   .     S
N3356  N5085   1.360   .     S
N3356  Fe2160  2.091   1_565 S
N3357  Fe3454  2.139   .     S
H3362  C3365   0.750   .     S
H3362  C3366   0.750   .     S
C3363  C3365   1.360   .     S
C3363  N3369   1.360   .     D
C3363  H3371   0.950   .     S
C3364  N3370   1.360   .     D
C3364  H3372   0.950   .     S
C3365  C5092   1.360   .     S
C3365  C3366   1.500   .     S
C3366  C3368   1.390   .     S
C3366  C5134   1.390   .     S
C3367  C3368   1.390   .     D
C3367  H3373   0.950   .     S
C3367  C5133   1.390   .     S
C3368  H3374   0.950   .     S
N3369  N5098   1.360   .     S
N3369  Fe3131  2.091   1_655 S
N3370  Fe3129  2.139   1_655 S
H3375  C3378   0.750   .     S
H3375  C3379   0.750   .     S
C3376  C3378   1.360   .     S
C3376  N3382   1.360   .     D
C3376  H3384   0.950   .     S
C3377  C3378   1.360   .     S
C3377  N3383   1.360   .     D
C3377  H3385   0.950   .     S
C3378  C3379   1.500   .     S
C3379  C3381   1.390   .     S
C3379  C3445   1.390   .     S
C3380  C3381   1.390   .     D
C3380  H3386   0.950   .     S
C3380  C3444   1.390   .     S
C3381  H3387   0.950   .     S
N3382  N3383   1.360   .     S
N3382  Fe2160  2.091   1_565 S
N3383  Fe3454  2.139   .     S
H3388  C3391   0.750   .     S
H3388  C3392   0.750   .     S
C3389  C3391   1.360   .     S
C3389  N3395   1.360   .     D
C3389  H3397   0.950   .     S
C3390  C3391   1.360   .     S
C3390  N3396   1.360   .     D
C3390  H3398   0.950   .     S
C3391  C3392   1.500   .     S
C3392  C3394   1.390   .     S
C3392  C3432   1.390   .     S
C3393  C3394   1.390   .     D
C3393  H3399   0.950   .     S
C3393  C3431   1.390   .     S
C3394  H3400   0.950   .     S
N3395  N3396   1.360   .     S
N3395  Fe3455  2.091   .     S
N3396  Fe3453  2.139   .     S
H3401  C3404   0.750   .     S
H3401  C3405   0.750   .     S
C3402  C3404   1.360   .     S
C3402  N3408   1.360   .     D
C3402  H3410   0.950   .     S
C3403  C5132   1.360   .     S
C3403  N3409   1.360   .     D
C3403  H3411   0.950   .     S
C3404  C3405   1.500   .     S
C3405  C3407   1.390   .     S
C3406  C3407   1.390   .     D
C3406  H3412   0.950   .     S
C3407  H3413   0.950   .     S
N3409  N5136   1.360   .     S
N3409  Fe3456  2.139   .     S
H3414  C3417   0.750   .     S
H3414  C3418   0.750   .     S
C3415  C3417   1.360   .     S
C3415  N3421   1.360   .     D
C3415  H3423   0.950   .     S
C3416  C5145   1.360   .     S
C3416  N3422   1.360   .     D
C3416  H3424   0.950   .     S
C3417  C3418   1.500   .     S
C3418  C3420   1.390   .     S
C3419  C3420   1.390   .     D
C3419  H3425   0.950   .     S
C3420  H3426   0.950   .     S
N3421  Fe3453  2.091   .     S
N3422  N5149   1.360   .     S
N3422  Fe3455  2.139   .     S
H3427  C3430   0.750   .     S
H3427  C3431   0.750   .     S
C3428  C3430   1.360   .     S
C3428  N3434   1.360   .     D
C3428  H3436   0.950   .     S
C3429  C3430   1.360   .     S
C3429  N3435   1.360   .     D
C3429  H3437   0.950   .     S
C3430  C3431   1.500   .     S
C3431  C3433   1.390   .     S
C3432  C3433   1.390   .     D
C3432  H3438   0.950   .     S
C3433  H3439   0.950   .     S
N3434  N3435   1.360   .     S
N3435  Fe3456  2.139   .     S
H3440  C3443   0.750   .     S
H3440  C3444   0.750   .     S
C3441  C3443   1.360   .     S
C3441  N3447   1.360   .     D
C3441  H3449   0.950   .     S
C3442  C3443   1.360   .     S
C3442  N3448   1.360   .     D
C3442  H3450   0.950   .     S
C3443  C3444   1.500   .     S
C3444  C3446   1.390   .     S
C3445  C3446   1.390   .     D
C3445  H3451   0.950   .     S
C3446  H3452   0.950   .     S
N3447  N3448   1.360   .     S
N3447  Fe3129  2.091   1_655 S
N3448  Fe3131  2.139   1_655 S
Fe3454 N2112   2.091   1_565 S
Fe3454 N2138   2.091   1_565 S
H3457  C3460   0.750   .     S
H3457  C3461   0.750   .     S
C3458  C3460   1.360   .     S
C3458  N3464   1.360   .     D
C3458  H3466   0.950   .     S
C3459  N3465   1.360   .     D
C3459  H3467   0.950   .     S
C3460  C5187   1.360   .     S
C3460  C3461   1.500   .     S
C3461  C3463   1.390   .     S
C3461  C5255   1.390   .     S
C3462  C3463   1.390   .     D
C3462  H3468   0.950   .     S
C3462  C5254   1.390   .     S
C3463  H3469   0.950   .     S
N3464  N5193   1.360   .     S
N3464  Fe3996  2.091   .     S
N3465  Fe3562  2.139   .     S
H3470  C3473   0.750   .     S
H3470  C3474   0.750   .     S
C3471  C3473   1.360   .     S
C3471  N3477   1.360   .     D
C3471  H3479   0.950   .     S
C3472  N3478   1.360   .     D
C3472  H3480   0.950   .     S
C3473  C5200   1.360   .     S
C3473  C3474   1.500   .     S
C3474  C3476   1.390   .     S
C3474  C5242   1.390   .     S
C3475  C3476   1.390   .     D
C3475  H3481   0.950   .     S
C3475  C5241   1.390   .     S
C3476  H3482   0.950   .     S
N3477  N5206   1.360   .     S
N3477  Fe3671  2.091   .     S
N3478  Fe3669  2.139   .     S
H3483  C3486   0.750   .     S
H3483  C3487   0.750   .     S
C3484  C3486   1.360   .     S
C3484  N3490   1.360   .     D
C3484  H3492   0.950   .     S
C3485  C3486   1.360   .     S
C3485  N3491   1.360   .     D
C3485  H3493   0.950   .     S
C3486  C3487   1.500   .     S
C3487  C3489   1.390   .     S
C3487  C3553   1.390   .     S
C3488  C3489   1.390   .     D
C3488  H3494   0.950   .     S
C3488  C3552   1.390   .     S
C3489  H3495   0.950   .     S
N3490  N3491   1.360   .     S
N3490  Fe3996  2.091   .     S
N3491  Fe3562  2.139   .     S
H3496  C3499   0.750   .     S
H3496  C3500   0.750   .     S
C3497  C3499   1.360   .     S
C3497  N3503   1.360   .     D
C3497  H3505   0.950   .     S
C3498  C3499   1.360   .     S
C3498  N3504   1.360   .     D
C3498  H3506   0.950   .     S
C3499  C3500   1.500   .     S
C3500  C3502   1.390   .     S
C3500  C3540   1.390   .     S
C3501  C3502   1.390   .     D
C3501  H3507   0.950   .     S
C3501  C3539   1.390   .     S
C3502  H3508   0.950   .     S
N3503  N3504   1.360   .     S
N3503  Fe3563  2.091   .     S
N3504  Fe3561  2.139   .     S
H3509  C3512   0.750   .     S
H3509  C3513   0.750   .     S
C3510  C3512   1.360   .     S
C3510  N3516   1.360   .     D
C3510  H3518   0.950   .     S
C3511  C5240   1.360   .     S
C3511  N3517   1.360   .     D
C3511  H3519   0.950   .     S
C3512  C3513   1.500   .     S
C3513  C3515   1.390   .     S
C3514  C3515   1.390   .     D
C3514  H3520   0.950   .     S
C3515  H3521   0.950   .     S
N3516  Fe4858  2.091   1_545 S
N3517  N5244   1.360   .     S
N3517  Fe3564  2.139   .     S
H3522  C3525   0.750   .     S
H3522  C3526   0.750   .     S
C3523  C3525   1.360   .     S
C3523  N3529   1.360   .     D
C3523  H3531   0.950   .     S
C3524  C5253   1.360   .     S
C3524  N3530   1.360   .     D
C3524  H3532   0.950   .     S
C3525  C3526   1.500   .     S
C3526  C3528   1.390   .     S
C3527  C3528   1.390   .     D
C3527  H3533   0.950   .     S
C3528  H3534   0.950   .     S
N3529  Fe3561  2.091   .     S
N3530  N5257   1.360   .     S
N3530  Fe3563  2.139   .     S
H3535  C3538   0.750   .     S
H3535  C3539   0.750   .     S
C3536  C3538   1.360   .     S
C3536  N3542   1.360   .     D
C3536  H3544   0.950   .     S
C3537  C3538   1.360   .     S
C3537  N3543   1.360   .     D
C3537  H3545   0.950   .     S
C3538  C3539   1.500   .     S
C3539  C3541   1.390   .     S
C3540  C3541   1.390   .     D
C3540  H3546   0.950   .     S
C3541  H3547   0.950   .     S
N3542  N3543   1.360   .     S
N3542  Fe4858  2.091   1_545 S
N3543  Fe3564  2.139   .     S
H3548  C3551   0.750   .     S
H3548  C3552   0.750   .     S
C3549  C3551   1.360   .     S
C3549  N3555   1.360   .     D
C3549  H3557   0.950   .     S
C3550  C3551   1.360   .     S
C3550  N3556   1.360   .     D
C3550  H3558   0.950   .     S
C3551  C3552   1.500   .     S
C3552  C3554   1.390   .     S
C3553  C3554   1.390   .     D
C3553  H3559   0.950   .     S
C3554  H3560   0.950   .     S
N3555  N3556   1.360   .     S
N3555  Fe3669  2.091   .     S
N3556  Fe3671  2.139   .     S
Fe3561 N3879   2.091   1_455 S
Fe3561 N3802   2.139   1_455 S
Fe3562 N3948   2.091   .     S
Fe3562 N3974   2.091   .     S
Fe3563 N3801   2.091   1_455 S
Fe3563 N3880   2.139   1_455 S
Fe3564 N4760   2.091   1_545 S
Fe3564 N4786   2.091   1_545 S
H3565  C3568   0.750   .     S
H3565  C3569   0.750   .     S
C3566  C3568   1.360   .     S
C3566  N3572   1.360   .     D
C3566  H3574   0.950   .     S
C3567  N3573   1.360   .     D
C3567  H3575   0.950   .     S
C3568  C5295   1.360   .     S
C3568  C3569   1.500   .     S
C3569  C3571   1.390   .     S
C3569  C5363   1.390   .     S
C3570  C3571   1.390   .     D
C3570  H3576   0.950   .     S
C3570  C5362   1.390   .     S
C3571  H3577   0.950   .     S
N3572  N5301   1.360   .     S
N3572  Fe4104  2.091   .     S
N3573  Fe3670  2.139   .     S
H3578  C3581   0.750   .     S
H3578  C3582   0.750   .     S
C3579  C3581   1.360   .     S
C3579  N3585   1.360   .     D
C3579  H3587   0.950   .     S
C3580  N3586   1.360   .     D
C3580  H3588   0.950   .     S
C3581  C5308   1.360   .     S
C3581  C3582   1.500   .     S
C3582  C3584   1.390   .     S
C3582  C5350   1.390   .     S
C3583  C3584   1.390   .     D
C3583  H3589   0.950   .     S
C3583  C5349   1.390   .     S
C3584  H3590   0.950   .     S
N3585  N5314   1.360   .     S
N3585  Fe3779  2.091   .     S
N3586  Fe3777  2.139   .     S
H3591  C3594   0.750   .     S
H3591  C3595   0.750   .     S
C3592  C3594   1.360   .     S
C3592  N3598   1.360   .     D
C3592  H3600   0.950   .     S
C3593  C3594   1.360   .     S
C3593  N3599   1.360   .     D
C3593  H3601   0.950   .     S
C3594  C3595   1.500   .     S
C3595  C3597   1.390   .     S
C3595  C3661   1.390   .     S
C3596  C3597   1.390   .     D
C3596  H3602   0.950   .     S
C3596  C3660   1.390   .     S
C3597  H3603   0.950   .     S
N3598  N3599   1.360   .     S
N3598  Fe4104  2.091   .     S
N3599  Fe3670  2.139   .     S
H3604  C3607   0.750   .     S
H3604  C3608   0.750   .     S
C3605  C3607   1.360   .     S
C3605  N3611   1.360   .     D
C3605  H3613   0.950   .     S
C3606  C3607   1.360   .     S
C3606  N3612   1.360   .     D
C3606  H3614   0.950   .     S
C3607  C3608   1.500   .     S
C3608  C3610   1.390   .     S
C3608  C3648   1.390   .     S
C3609  C3610   1.390   .     D
C3609  H3615   0.950   .     S
C3609  C3647   1.390   .     S
C3610  H3616   0.950   .     S
N3611  N3612   1.360   .     S
N3611  Fe3671  2.091   .     S
N3612  Fe3669  2.139   .     S
H3617  C3620   0.750   .     S
H3617  C3621   0.750   .     S
C3618  C3620   1.360   .     S
C3618  N3624   1.360   .     D
C3618  H3626   0.950   .     S
C3619  C5348   1.360   .     S
C3619  N3625   1.360   .     D
C3619  H3627   0.950   .     S
C3620  C3621   1.500   .     S
C3621  C3623   1.390   .     S
C3622  C3623   1.390   .     D
C3622  H3628   0.950   .     S
C3623  H3629   0.950   .     S
N3624  Fe4966  2.091   1_545 S
N3625  N5352   1.360   .     S
N3625  Fe3672  2.139   .     S
H3630  C3633   0.750   .     S
H3630  C3634   0.750   .     S
C3631  C3633   1.360   .     S
C3631  N3637   1.360   .     D
C3631  H3639   0.950   .     S
C3632  C5361   1.360   .     S
C3632  N3638   1.360   .     D
C3632  H3640   0.950   .     S
C3633  C3634   1.500   .     S
C3634  C3636   1.390   .     S
C3635  C3636   1.390   .     D
C3635  H3641   0.950   .     S
C3636  H3642   0.950   .     S
N3637  Fe3669  2.091   .     S
N3638  N5365   1.360   .     S
N3638  Fe3671  2.139   .     S
H3643  C3646   0.750   .     S
H3643  C3647   0.750   .     S
C3644  C3646   1.360   .     S
C3644  N3650   1.360   .     D
C3644  H3652   0.950   .     S
C3645  C3646   1.360   .     S
C3645  N3651   1.360   .     D
C3645  H3653   0.950   .     S
C3646  C3647   1.500   .     S
C3647  C3649   1.390   .     S
C3648  C3649   1.390   .     D
C3648  H3654   0.950   .     S
C3649  H3655   0.950   .     S
N3650  N3651   1.360   .     S
N3650  Fe4966  2.091   1_545 S
N3651  Fe3672  2.139   .     S
H3656  C3659   0.750   .     S
H3656  C3660   0.750   .     S
C3657  C3659   1.360   .     S
C3657  N3663   1.360   .     D
C3657  H3665   0.950   .     S
C3658  C3659   1.360   .     S
C3658  N3664   1.360   .     D
C3658  H3666   0.950   .     S
C3659  C3660   1.500   .     S
C3660  C3662   1.390   .     S
C3661  C3662   1.390   .     D
C3661  H3667   0.950   .     S
C3662  H3668   0.950   .     S
N3663  N3664   1.360   .     S
N3663  Fe3777  2.091   .     S
N3664  Fe3779  2.139   .     S
Fe3670 N4056   2.091   .     S
Fe3670 N4082   2.091   .     S
Fe3672 N4868   2.091   1_545 S
Fe3672 N4894   2.091   1_545 S
H3673  C3676   0.750   .     S
H3673  C3677   0.750   .     S
C3674  C3676   1.360   .     S
C3674  N3680   1.360   .     D
C3674  H3682   0.950   .     S
C3675  N3681   1.360   .     D
C3675  H3683   0.950   .     S
C3676  C5403   1.360   .     S
C3676  C3677   1.500   .     S
C3677  C3679   1.390   .     S
C3677  C5471   1.390   .     S
C3678  C3679   1.390   .     D
C3678  H3684   0.950   .     S
C3678  C5470   1.390   .     S
C3679  H3685   0.950   .     S
N3680  N5409   1.360   .     S
N3680  Fe4212  2.091   .     S
N3681  Fe3778  2.139   .     S
H3686  C3689   0.750   .     S
H3686  C3690   0.750   .     S
C3687  C3689   1.360   .     S
C3687  N3693   1.360   .     D
C3687  H3695   0.950   .     S
C3688  N3694   1.360   .     D
C3688  H3696   0.950   .     S
C3689  C5416   1.360   .     S
C3689  C3690   1.500   .     S
C3690  C3692   1.390   .     S
C3690  C5458   1.390   .     S
C3691  C3692   1.390   .     D
C3691  H3697   0.950   .     S
C3691  C5457   1.390   .     S
C3692  H3698   0.950   .     S
N3693  N5422   1.360   .     S
N3693  Fe3887  2.091   .     S
N3694  Fe3885  2.139   .     S
H3699  C3702   0.750   .     S
H3699  C3703   0.750   .     S
C3700  C3702   1.360   .     S
C3700  N3706   1.360   .     D
C3700  H3708   0.950   .     S
C3701  C3702   1.360   .     S
C3701  N3707   1.360   .     D
C3701  H3709   0.950   .     S
C3702  C3703   1.500   .     S
C3703  C3705   1.390   .     S
C3703  C3769   1.390   .     S
C3704  C3705   1.390   .     D
C3704  H3710   0.950   .     S
C3704  C3768   1.390   .     S
C3705  H3711   0.950   .     S
N3706  N3707   1.360   .     S
N3706  Fe4212  2.091   .     S
N3707  Fe3778  2.139   .     S
H3712  C3715   0.750   .     S
H3712  C3716   0.750   .     S
C3713  C3715   1.360   .     S
C3713  N3719   1.360   .     D
C3713  H3721   0.950   .     S
C3714  C3715   1.360   .     S
C3714  N3720   1.360   .     D
C3714  H3722   0.950   .     S
C3715  C3716   1.500   .     S
C3716  C3718   1.390   .     S
C3716  C3756   1.390   .     S
C3717  C3718   1.390   .     D
C3717  H3723   0.950   .     S
C3717  C3755   1.390   .     S
C3718  H3724   0.950   .     S
N3719  N3720   1.360   .     S
N3719  Fe3779  2.091   .     S
N3720  Fe3777  2.139   .     S
H3725  C3728   0.750   .     S
H3725  C3729   0.750   .     S
C3726  C3728   1.360   .     S
C3726  N3732   1.360   .     D
C3726  H3734   0.950   .     S
C3727  C5456   1.360   .     S
C3727  N3733   1.360   .     D
C3727  H3735   0.950   .     S
C3728  C3729   1.500   .     S
C3729  C3731   1.390   .     S
C3730  C3731   1.390   .     D
C3730  H3736   0.950   .     S
C3731  H3737   0.950   .     S
N3732  Fe5074  2.091   1_545 S
N3733  N5460   1.360   .     S
N3733  Fe3780  2.139   .     S
H3738  C3741   0.750   .     S
H3738  C3742   0.750   .     S
C3739  C3741   1.360   .     S
C3739  N3745   1.360   .     D
C3739  H3747   0.950   .     S
C3740  C5469   1.360   .     S
C3740  N3746   1.360   .     D
C3740  H3748   0.950   .     S
C3741  C3742   1.500   .     S
C3742  C3744   1.390   .     S
C3743  C3744   1.390   .     D
C3743  H3749   0.950   .     S
C3744  H3750   0.950   .     S
N3745  Fe3777  2.091   .     S
N3746  N5473   1.360   .     S
N3746  Fe3779  2.139   .     S
H3751  C3754   0.750   .     S
H3751  C3755   0.750   .     S
C3752  C3754   1.360   .     S
C3752  N3758   1.360   .     D
C3752  H3760   0.950   .     S
C3753  C3754   1.360   .     S
C3753  N3759   1.360   .     D
C3753  H3761   0.950   .     S
C3754  C3755   1.500   .     S
C3755  C3757   1.390   .     S
C3756  C3757   1.390   .     D
C3756  H3762   0.950   .     S
C3757  H3763   0.950   .     S
N3758  N3759   1.360   .     S
N3758  Fe5074  2.091   1_545 S
N3759  Fe3780  2.139   .     S
H3764  C3767   0.750   .     S
H3764  C3768   0.750   .     S
C3765  C3767   1.360   .     S
C3765  N3771   1.360   .     D
C3765  H3773   0.950   .     S
C3766  C3767   1.360   .     S
C3766  N3772   1.360   .     D
C3766  H3774   0.950   .     S
C3767  C3768   1.500   .     S
C3768  C3770   1.390   .     S
C3769  C3770   1.390   .     D
C3769  H3775   0.950   .     S
C3770  H3776   0.950   .     S
N3771  N3772   1.360   .     S
N3771  Fe3885  2.091   .     S
N3772  Fe3887  2.139   .     S
Fe3778 N4164   2.091   .     S
Fe3778 N4190   2.091   .     S
Fe3780 N4976   2.091   1_545 S
Fe3780 N5002   2.091   1_545 S
H3781  C3784   0.750   .     S
H3781  C3785   0.750   .     S
C3782  C3784   1.360   .     S
C3782  N3788   1.360   .     D
C3782  H3790   0.950   .     S
C3783  N3789   1.360   .     D
C3783  H3791   0.950   .     S
C3784  C5511   1.360   .     S
C3784  C3785   1.500   .     S
C3785  C3787   1.390   .     S
C3785  C5579   1.390   .     S
C3786  C3787   1.390   .     D
C3786  H3792   0.950   .     S
C3786  C5578   1.390   .     S
C3787  H3793   0.950   .     S
N3788  N5517   1.360   .     S
N3788  Fe4320  2.091   .     S
N3789  Fe3886  2.139   .     S
H3794  C3797   0.750   .     S
H3794  C3798   0.750   .     S
C3795  C3797   1.360   .     S
C3795  N3801   1.360   .     D
C3795  H3803   0.950   .     S
C3796  N3802   1.360   .     D
C3796  H3804   0.950   .     S
C3797  C5524   1.360   .     S
C3797  C3798   1.500   .     S
C3798  C3800   1.390   .     S
C3798  C5566   1.390   .     S
C3799  C3800   1.390   .     D
C3799  H3805   0.950   .     S
C3799  C5565   1.390   .     S
C3800  H3806   0.950   .     S
N3801  N5530   1.360   .     S
N3801  Fe3563  2.091   1_655 S
N3802  Fe3561  2.139   1_655 S
H3807  C3810   0.750   .     S
H3807  C3811   0.750   .     S
C3808  C3810   1.360   .     S
C3808  N3814   1.360   .     D
C3808  H3816   0.950   .     S
C3809  C3810   1.360   .     S
C3809  N3815   1.360   .     D
C3809  H3817   0.950   .     S
C3810  C3811   1.500   .     S
C3811  C3813   1.390   .     S
C3811  C3877   1.390   .     S
C3812  C3813   1.390   .     D
C3812  H3818   0.950   .     S
C3812  C3876   1.390   .     S
C3813  H3819   0.950   .     S
N3814  N3815   1.360   .     S
N3814  Fe4320  2.091   .     S
N3815  Fe3886  2.139   .     S
H3820  C3823   0.750   .     S
H3820  C3824   0.750   .     S
C3821  C3823   1.360   .     S
C3821  N3827   1.360   .     D
C3821  H3829   0.950   .     S
C3822  C3823   1.360   .     S
C3822  N3828   1.360   .     D
C3822  H3830   0.950   .     S
C3823  C3824   1.500   .     S
C3824  C3826   1.390   .     S
C3824  C3864   1.390   .     S
C3825  C3826   1.390   .     D
C3825  H3831   0.950   .     S
C3825  C3863   1.390   .     S
C3826  H3832   0.950   .     S
N3827  N3828   1.360   .     S
N3827  Fe3887  2.091   .     S
N3828  Fe3885  2.139   .     S
H3833  C3836   0.750   .     S
H3833  C3837   0.750   .     S
C3834  C3836   1.360   .     S
C3834  N3840   1.360   .     D
C3834  H3842   0.950   .     S
C3835  C5564   1.360   .     S
C3835  N3841   1.360   .     D
C3835  H3843   0.950   .     S
C3836  C3837   1.500   .     S
C3837  C3839   1.390   .     S
C3838  C3839   1.390   .     D
C3838  H3844   0.950   .     S
C3839  H3845   0.950   .     S
N3840  Fe5182  2.091   1_545 S
N3841  N5568   1.360   .     S
N3841  Fe3888  2.139   .     S
H3846  C3849   0.750   .     S
H3846  C3850   0.750   .     S
C3847  C3849   1.360   .     S
C3847  N3853   1.360   .     D
C3847  H3855   0.950   .     S
C3848  C5577   1.360   .     S
C3848  N3854   1.360   .     D
C3848  H3856   0.950   .     S
C3849  C3850   1.500   .     S
C3850  C3852   1.390   .     S
C3851  C3852   1.390   .     D
C3851  H3857   0.950   .     S
C3852  H3858   0.950   .     S
N3853  Fe3885  2.091   .     S
N3854  N5581   1.360   .     S
N3854  Fe3887  2.139   .     S
H3859  C3862   0.750   .     S
H3859  C3863   0.750   .     S
C3860  C3862   1.360   .     S
C3860  N3866   1.360   .     D
C3860  H3868   0.950   .     S
C3861  C3862   1.360   .     S
C3861  N3867   1.360   .     D
C3861  H3869   0.950   .     S
C3862  C3863   1.500   .     S
C3863  C3865   1.390   .     S
C3864  C3865   1.390   .     D
C3864  H3870   0.950   .     S
C3865  H3871   0.950   .     S
N3866  N3867   1.360   .     S
N3866  Fe5182  2.091   1_545 S
N3867  Fe3888  2.139   .     S
H3872  C3875   0.750   .     S
H3872  C3876   0.750   .     S
C3873  C3875   1.360   .     S
C3873  N3879   1.360   .     D
C3873  H3881   0.950   .     S
C3874  C3875   1.360   .     S
C3874  N3880   1.360   .     D
C3874  H3882   0.950   .     S
C3875  C3876   1.500   .     S
C3876  C3878   1.390   .     S
C3877  C3878   1.390   .     D
C3877  H3883   0.950   .     S
C3878  H3884   0.950   .     S
N3879  N3880   1.360   .     S
N3879  Fe3561  2.091   1_655 S
N3880  Fe3563  2.139   1_655 S
Fe3886 N4272   2.091   .     S
Fe3886 N4298   2.091   .     S
Fe3888 N5084   2.091   1_545 S
Fe3888 N5110   2.091   1_545 S
H3889  C3892   0.750   .     S
H3889  C3893   0.750   .     S
C3890  C3892   1.360   .     S
C3890  N3896   1.360   .     D
C3890  H3898   0.950   .     S
C3891  N3897   1.360   .     D
C3891  H3899   0.950   .     S
C3892  C5619   1.360   .     S
C3892  C3893   1.500   .     S
C3893  C3895   1.390   .     S
C3893  C5687   1.390   .     S
C3894  C3895   1.390   .     D
C3894  H3900   0.950   .     S
C3894  C5686   1.390   .     S
C3895  H3901   0.950   .     S
N3896  N5625   1.360   .     S
N3896  Fe4428  2.091   .     S
N3897  Fe3994  2.139   .     S
H3902  C3905   0.750   .     S
H3902  C3906   0.750   .     S
C3903  C3905   1.360   .     S
C3903  N3909   1.360   .     D
C3903  H3911   0.950   .     S
C3904  N3910   1.360   .     D
C3904  H3912   0.950   .     S
C3905  C5632   1.360   .     S
C3905  C3906   1.500   .     S
C3906  C3908   1.390   .     S
C3906  C5674   1.390   .     S
C3907  C3908   1.390   .     D
C3907  H3913   0.950   .     S
C3907  C5673   1.390   .     S
C3908  H3914   0.950   .     S
N3909  N5638   1.360   .     S
N3909  Fe4103  2.091   .     S
N3910  Fe4101  2.139   .     S
H3915  C3918   0.750   .     S
H3915  C3919   0.750   .     S
C3916  C3918   1.360   .     S
C3916  N3922   1.360   .     D
C3916  H3924   0.950   .     S
C3917  C3918   1.360   .     S
C3917  N3923   1.360   .     D
C3917  H3925   0.950   .     S
C3918  C3919   1.500   .     S
C3919  C3921   1.390   .     S
C3919  C3985   1.390   .     S
C3920  C3921   1.390   .     D
C3920  H3926   0.950   .     S
C3920  C3984   1.390   .     S
C3921  H3927   0.950   .     S
N3922  N3923   1.360   .     S
N3922  Fe4428  2.091   .     S
N3923  Fe3994  2.139   .     S
H3928  C3931   0.750   .     S
H3928  C3932   0.750   .     S
C3929  C3931   1.360   .     S
C3929  N3935   1.360   .     D
C3929  H3937   0.950   .     S
C3930  C3931   1.360   .     S
C3930  N3936   1.360   .     D
C3930  H3938   0.950   .     S
C3931  C3932   1.500   .     S
C3932  C3934   1.390   .     S
C3932  C3972   1.390   .     S
C3933  C3934   1.390   .     D
C3933  H3939   0.950   .     S
C3933  C3971   1.390   .     S
C3934  H3940   0.950   .     S
N3935  N3936   1.360   .     S
N3935  Fe3995  2.091   .     S
N3936  Fe3993  2.139   .     S
H3941  C3944   0.750   .     S
H3941  C3945   0.750   .     S
C3942  C3944   1.360   .     S
C3942  N3948   1.360   .     D
C3942  H3950   0.950   .     S
C3943  C5672   1.360   .     S
C3943  N3949   1.360   .     D
C3943  H3951   0.950   .     S
C3944  C3945   1.500   .     S
C3945  C3947   1.390   .     S
C3946  C3947   1.390   .     D
C3946  H3952   0.950   .     S
C3947  H3953   0.950   .     S
N3949  N5676   1.360   .     S
N3949  Fe3996  2.139   .     S
H3954  C3957   0.750   .     S
H3954  C3958   0.750   .     S
C3955  C3957   1.360   .     S
C3955  N3961   1.360   .     D
C3955  H3963   0.950   .     S
C3956  C5685   1.360   .     S
C3956  N3962   1.360   .     D
C3956  H3964   0.950   .     S
C3957  C3958   1.500   .     S
C3958  C3960   1.390   .     S
C3959  C3960   1.390   .     D
C3959  H3965   0.950   .     S
C3960  H3966   0.950   .     S
N3961  Fe3993  2.091   .     S
N3962  N5689   1.360   .     S
N3962  Fe3995  2.139   .     S
H3967  C3970   0.750   .     S
H3967  C3971   0.750   .     S
C3968  C3970   1.360   .     S
C3968  N3974   1.360   .     D
C3968  H3976   0.950   .     S
C3969  C3970   1.360   .     S
C3969  N3975   1.360   .     D
C3969  H3977   0.950   .     S
C3970  C3971   1.500   .     S
C3971  C3973   1.390   .     S
C3972  C3973   1.390   .     D
C3972  H3978   0.950   .     S
C3973  H3979   0.950   .     S
N3974  N3975   1.360   .     S
N3975  Fe3996  2.139   .     S
H3980  C3983   0.750   .     S
H3980  C3984   0.750   .     S
C3981  C3983   1.360   .     S
C3981  N3987   1.360   .     D
C3981  H3989   0.950   .     S
C3982  C3983   1.360   .     S
C3982  N3988   1.360   .     D
C3982  H3990   0.950   .     S
C3983  C3984   1.500   .     S
C3984  C3986   1.390   .     S
C3985  C3986   1.390   .     D
C3985  H3991   0.950   .     S
C3986  H3992   0.950   .     S
N3987  N3988   1.360   .     S
N3987  Fe4101  2.091   .     S
N3988  Fe4103  2.139   .     S
Fe3993 N4311   2.091   1_455 S
Fe3993 N4234   2.139   1_455 S
Fe3994 N4380   2.091   .     S
Fe3994 N4406   2.091   .     S
Fe3995 N4233   2.091   1_455 S
Fe3995 N4312   2.139   1_455 S
H3997  C4000   0.750   .     S
H3997  C4001   0.750   .     S
C3998  C4000   1.360   .     S
C3998  N4004   1.360   .     D
C3998  H4006   0.950   .     S
C3999  N4005   1.360   .     D
C3999  H4007   0.950   .     S
C4000  C5727   1.360   .     S
C4000  C4001   1.500   .     S
C4001  C4003   1.390   .     S
C4001  C5795   1.390   .     S
C4002  C4003   1.390   .     D
C4002  H4008   0.950   .     S
C4002  C5794   1.390   .     S
C4003  H4009   0.950   .     S
N4004  N5733   1.360   .     S
N4004  Fe4536  2.091   .     S
N4005  Fe4102  2.139   .     S
H4010  C4013   0.750   .     S
H4010  C4014   0.750   .     S
C4011  C4013   1.360   .     S
C4011  N4017   1.360   .     D
C4011  H4019   0.950   .     S
C4012  N4018   1.360   .     D
C4012  H4020   0.950   .     S
C4013  C5740   1.360   .     S
C4013  C4014   1.500   .     S
C4014  C4016   1.390   .     S
C4014  C5782   1.390   .     S
C4015  C4016   1.390   .     D
C4015  H4021   0.950   .     S
C4015  C5781   1.390   .     S
C4016  H4022   0.950   .     S
N4017  N5746   1.360   .     S
N4017  Fe4211  2.091   .     S
N4018  Fe4209  2.139   .     S
H4023  C4026   0.750   .     S
H4023  C4027   0.750   .     S
C4024  C4026   1.360   .     S
C4024  N4030   1.360   .     D
C4024  H4032   0.950   .     S
C4025  C4026   1.360   .     S
C4025  N4031   1.360   .     D
C4025  H4033   0.950   .     S
C4026  C4027   1.500   .     S
C4027  C4029   1.390   .     S
C4027  C4093   1.390   .     S
C4028  C4029   1.390   .     D
C4028  H4034   0.950   .     S
C4028  C4092   1.390   .     S
C4029  H4035   0.950   .     S
N4030  N4031   1.360   .     S
N4030  Fe4536  2.091   .     S
N4031  Fe4102  2.139   .     S
H4036  C4039   0.750   .     S
H4036  C4040   0.750   .     S
C4037  C4039   1.360   .     S
C4037  N4043   1.360   .     D
C4037  H4045   0.950   .     S
C4038  C4039   1.360   .     S
C4038  N4044   1.360   .     D
C4038  H4046   0.950   .     S
C4039  C4040   1.500   .     S
C4040  C4042   1.390   .     S
C4040  C4080   1.390   .     S
C4041  C4042   1.390   .     D
C4041  H4047   0.950   .     S
C4041  C4079   1.390   .     S
C4042  H4048   0.950   .     S
N4043  N4044   1.360   .     S
N4043  Fe4103  2.091   .     S
N4044  Fe4101  2.139   .     S
H4049  C4052   0.750   .     S
H4049  C4053   0.750   .     S
C4050  C4052   1.360   .     S
C4050  N4056   1.360   .     D
C4050  H4058   0.950   .     S
C4051  C5780   1.360   .     S
C4051  N4057   1.360   .     D
C4051  H4059   0.950   .     S
C4052  C4053   1.500   .     S
C4053  C4055   1.390   .     S
C4054  C4055   1.390   .     D
C4054  H4060   0.950   .     S
C4055  H4061   0.950   .     S
N4057  N5784   1.360   .     S
N4057  Fe4104  2.139   .     S
H4062  C4065   0.750   .     S
H4062  C4066   0.750   .     S
C4063  C4065   1.360   .     S
C4063  N4069   1.360   .     D
C4063  H4071   0.950   .     S
C4064  C5793   1.360   .     S
C4064  N4070   1.360   .     D
C4064  H4072   0.950   .     S
C4065  C4066   1.500   .     S
C4066  C4068   1.390   .     S
C4067  C4068   1.390   .     D
C4067  H4073   0.950   .     S
C4068  H4074   0.950   .     S
N4069  Fe4101  2.091   .     S
N4070  N5797   1.360   .     S
N4070  Fe4103  2.139   .     S
H4075  C4078   0.750   .     S
H4075  C4079   0.750   .     S
C4076  C4078   1.360   .     S
C4076  N4082   1.360   .     D
C4076  H4084   0.950   .     S
C4077  C4078   1.360   .     S
C4077  N4083   1.360   .     D
C4077  H4085   0.950   .     S
C4078  C4079   1.500   .     S
C4079  C4081   1.390   .     S
C4080  C4081   1.390   .     D
C4080  H4086   0.950   .     S
C4081  H4087   0.950   .     S
N4082  N4083   1.360   .     S
N4083  Fe4104  2.139   .     S
H4088  C4091   0.750   .     S
H4088  C4092   0.750   .     S
C4089  C4091   1.360   .     S
C4089  N4095   1.360   .     D
C4089  H4097   0.950   .     S
C4090  C4091   1.360   .     S
C4090  N4096   1.360   .     D
C4090  H4098   0.950   .     S
C4091  C4092   1.500   .     S
C4092  C4094   1.390   .     S
C4093  C4094   1.390   .     D
C4093  H4099   0.950   .     S
C4094  H4100   0.950   .     S
N4095  N4096   1.360   .     S
N4095  Fe4209  2.091   .     S
N4096  Fe4211  2.139   .     S
Fe4102 N4488   2.091   .     S
Fe4102 N4514   2.091   .     S
H4105  C4108   0.750   .     S
H4105  C4109   0.750   .     S
C4106  C4108   1.360   .     S
C4106  N4112   1.360   .     D
C4106  H4114   0.950   .     S
C4107  N4113   1.360   .     D
C4107  H4115   0.950   .     S
C4108  C5835   1.360   .     S
C4108  C4109   1.500   .     S
C4109  C4111   1.390   .     S
C4109  C5903   1.390   .     S
C4110  C4111   1.390   .     D
C4110  H4116   0.950   .     S
C4110  C5902   1.390   .     S
C4111  H4117   0.950   .     S
N4112  N5841   1.360   .     S
N4112  Fe4644  2.091   .     S
N4113  Fe4210  2.139   .     S
H4118  C4121   0.750   .     S
H4118  C4122   0.750   .     S
C4119  C4121   1.360   .     S
C4119  N4125   1.360   .     D
C4119  H4127   0.950   .     S
C4120  N4126   1.360   .     D
C4120  H4128   0.950   .     S
C4121  C5848   1.360   .     S
C4121  C4122   1.500   .     S
C4122  C4124   1.390   .     S
C4122  C5890   1.390   .     S
C4123  C4124   1.390   .     D
C4123  H4129   0.950   .     S
C4123  C5889   1.390   .     S
C4124  H4130   0.950   .     S
N4125  N5854   1.360   .     S
N4125  Fe4319  2.091   .     S
N4126  Fe4317  2.139   .     S
H4131  C4134   0.750   .     S
H4131  C4135   0.750   .     S
C4132  C4134   1.360   .     S
C4132  N4138   1.360   .     D
C4132  H4140   0.950   .     S
C4133  C4134   1.360   .     S
C4133  N4139   1.360   .     D
C4133  H4141   0.950   .     S
C4134  C4135   1.500   .     S
C4135  C4137   1.390   .     S
C4135  C4201   1.390   .     S
C4136  C4137   1.390   .     D
C4136  H4142   0.950   .     S
C4136  C4200   1.390   .     S
C4137  H4143   0.950   .     S
N4138  N4139   1.360   .     S
N4138  Fe4644  2.091   .     S
N4139  Fe4210  2.139   .     S
H4144  C4147   0.750   .     S
H4144  C4148   0.750   .     S
C4145  C4147   1.360   .     S
C4145  N4151   1.360   .     D
C4145  H4153   0.950   .     S
C4146  C4147   1.360   .     S
C4146  N4152   1.360   .     D
C4146  H4154   0.950   .     S
C4147  C4148   1.500   .     S
C4148  C4150   1.390   .     S
C4148  C4188   1.390   .     S
C4149  C4150   1.390   .     D
C4149  H4155   0.950   .     S
C4149  C4187   1.390   .     S
C4150  H4156   0.950   .     S
N4151  N4152   1.360   .     S
N4151  Fe4211  2.091   .     S
N4152  Fe4209  2.139   .     S
H4157  C4160   0.750   .     S
H4157  C4161   0.750   .     S
C4158  C4160   1.360   .     S
C4158  N4164   1.360   .     D
C4158  H4166   0.950   .     S
C4159  C5888   1.360   .     S
C4159  N4165   1.360   .     D
C4159  H4167   0.950   .     S
C4160  C4161   1.500   .     S
C4161  C4163   1.390   .     S
C4162  C4163   1.390   .     D
C4162  H4168   0.950   .     S
C4163  H4169   0.950   .     S
N4165  N5892   1.360   .     S
N4165  Fe4212  2.139   .     S
H4170  C4173   0.750   .     S
H4170  C4174   0.750   .     S
C4171  C4173   1.360   .     S
C4171  N4177   1.360   .     D
C4171  H4179   0.950   .     S
C4172  C5901   1.360   .     S
C4172  N4178   1.360   .     D
C4172  H4180   0.950   .     S
C4173  C4174   1.500   .     S
C4174  C4176   1.390   .     S
C4175  C4176   1.390   .     D
C4175  H4181   0.950   .     S
C4176  H4182   0.950   .     S
N4177  Fe4209  2.091   .     S
N4178  N5905   1.360   .     S
N4178  Fe4211  2.139   .     S
H4183  C4186   0.750   .     S
H4183  C4187   0.750   .     S
C4184  C4186   1.360   .     S
C4184  N4190   1.360   .     D
C4184  H4192   0.950   .     S
C4185  C4186   1.360   .     S
C4185  N4191   1.360   .     D
C4185  H4193   0.950   .     S
C4186  C4187   1.500   .     S
C4187  C4189   1.390   .     S
C4188  C4189   1.390   .     D
C4188  H4194   0.950   .     S
C4189  H4195   0.950   .     S
N4190  N4191   1.360   .     S
N4191  Fe4212  2.139   .     S
H4196  C4199   0.750   .     S
H4196  C4200   0.750   .     S
C4197  C4199   1.360   .     S
C4197  N4203   1.360   .     D
C4197  H4205   0.950   .     S
C4198  C4199   1.360   .     S
C4198  N4204   1.360   .     D
C4198  H4206   0.950   .     S
C4199  C4200   1.500   .     S
C4200  C4202   1.390   .     S
C4201  C4202   1.390   .     D
C4201  H4207   0.950   .     S
C4202  H4208   0.950   .     S
N4203  N4204   1.360   .     S
N4203  Fe4317  2.091   .     S
N4204  Fe4319  2.139   .     S
Fe4210 N4596   2.091   .     S
Fe4210 N4622   2.091   .     S
H4213  C4216   0.750   .     S
H4213  C4217   0.750   .     S
C4214  C4216   1.360   .     S
C4214  N4220   1.360   .     D
C4214  H4222   0.950   .     S
C4215  N4221   1.360   .     D
C4215  H4223   0.950   .     S
C4216  C5943   1.360   .     S
C4216  C4217   1.500   .     S
C4217  C4219   1.390   .     S
C4217  C6011   1.390   .     S
C4218  C4219   1.390   .     D
C4218  H4224   0.950   .     S
C4218  C6010   1.390   .     S
C4219  H4225   0.950   .     S
N4220  N5949   1.360   .     S
N4220  Fe4752  2.091   .     S
N4221  Fe4318  2.139   .     S
H4226  C4229   0.750   .     S
H4226  C4230   0.750   .     S
C4227  C4229   1.360   .     S
C4227  N4233   1.360   .     D
C4227  H4235   0.950   .     S
C4228  N4234   1.360   .     D
C4228  H4236   0.950   .     S
C4229  C5956   1.360   .     S
C4229  C4230   1.500   .     S
C4230  C4232   1.390   .     S
C4230  C5998   1.390   .     S
C4231  C4232   1.390   .     D
C4231  H4237   0.950   .     S
C4231  C5997   1.390   .     S
C4232  H4238   0.950   .     S
N4233  N5962   1.360   .     S
N4233  Fe3995  2.091   1_655 S
N4234  Fe3993  2.139   1_655 S
H4239  C4242   0.750   .     S
H4239  C4243   0.750   .     S
C4240  C4242   1.360   .     S
C4240  N4246   1.360   .     D
C4240  H4248   0.950   .     S
C4241  C4242   1.360   .     S
C4241  N4247   1.360   .     D
C4241  H4249   0.950   .     S
C4242  C4243   1.500   .     S
C4243  C4245   1.390   .     S
C4243  C4309   1.390   .     S
C4244  C4245   1.390   .     D
C4244  H4250   0.950   .     S
C4244  C4308   1.390   .     S
C4245  H4251   0.950   .     S
N4246  N4247   1.360   .     S
N4246  Fe4752  2.091   .     S
N4247  Fe4318  2.139   .     S
H4252  C4255   0.750   .     S
H4252  C4256   0.750   .     S
C4253  C4255   1.360   .     S
C4253  N4259   1.360   .     D
C4253  H4261   0.950   .     S
C4254  C4255   1.360   .     S
C4254  N4260   1.360   .     D
C4254  H4262   0.950   .     S
C4255  C4256   1.500   .     S
C4256  C4258   1.390   .     S
C4256  C4296   1.390   .     S
C4257  C4258   1.390   .     D
C4257  H4263   0.950   .     S
C4257  C4295   1.390   .     S
C4258  H4264   0.950   .     S
N4259  N4260   1.360   .     S
N4259  Fe4319  2.091   .     S
N4260  Fe4317  2.139   .     S
H4265  C4268   0.750   .     S
H4265  C4269   0.750   .     S
C4266  C4268   1.360   .     S
C4266  N4272   1.360   .     D
C4266  H4274   0.950   .     S
C4267  C5996   1.360   .     S
C4267  N4273   1.360   .     D
C4267  H4275   0.950   .     S
C4268  C4269   1.500   .     S
C4269  C4271   1.390   .     S
C4270  C4271   1.390   .     D
C4270  H4276   0.950   .     S
C4271  H4277   0.950   .     S
N4273  N6000   1.360   .     S
N4273  Fe4320  2.139   .     S
H4278  C4281   0.750   .     S
H4278  C4282   0.750   .     S
C4279  C4281   1.360   .     S
C4279  N4285   1.360   .     D
C4279  H4287   0.950   .     S
C4280  C6009   1.360   .     S
C4280  N4286   1.360   .     D
C4280  H4288   0.950   .     S
C4281  C4282   1.500   .     S
C4282  C4284   1.390   .     S
C4283  C4284   1.390   .     D
C4283  H4289   0.950   .     S
C4284  H4290   0.950   .     S
N4285  Fe4317  2.091   .     S
N4286  N6013   1.360   .     S
N4286  Fe4319  2.139   .     S
H4291  C4294   0.750   .     S
H4291  C4295   0.750   .     S
C4292  C4294   1.360   .     S
C4292  N4298   1.360   .     D
C4292  H4300   0.950   .     S
C4293  C4294   1.360   .     S
C4293  N4299   1.360   .     D
C4293  H4301   0.950   .     S
C4294  C4295   1.500   .     S
C4295  C4297   1.390   .     S
C4296  C4297   1.390   .     D
C4296  H4302   0.950   .     S
C4297  H4303   0.950   .     S
N4298  N4299   1.360   .     S
N4299  Fe4320  2.139   .     S
H4304  C4307   0.750   .     S
H4304  C4308   0.750   .     S
C4305  C4307   1.360   .     S
C4305  N4311   1.360   .     D
C4305  H4313   0.950   .     S
C4306  C4307   1.360   .     S
C4306  N4312   1.360   .     D
C4306  H4314   0.950   .     S
C4307  C4308   1.500   .     S
C4308  C4310   1.390   .     S
C4309  C4310   1.390   .     D
C4309  H4315   0.950   .     S
C4310  H4316   0.950   .     S
N4311  N4312   1.360   .     S
N4311  Fe3993  2.091   1_655 S
N4312  Fe3995  2.139   1_655 S
Fe4318 N4704   2.091   .     S
Fe4318 N4730   2.091   .     S
H4321  C4324   0.750   .     S
H4321  C4325   0.750   .     S
C4322  C4324   1.360   .     S
C4322  N4328   1.360   .     D
C4322  H4330   0.950   .     S
C4323  N4329   1.360   .     D
C4323  H4331   0.950   .     S
C4324  C6051   1.360   .     S
C4324  C4325   1.500   .     S
C4325  C4327   1.390   .     S
C4325  C6119   1.390   .     S
C4326  C4327   1.390   .     D
C4326  H4332   0.950   .     S
C4326  C6118   1.390   .     S
C4327  H4333   0.950   .     S
N4328  N6057   1.360   .     S
N4328  Fe4860  2.091   .     S
N4329  Fe4426  2.139   .     S
H4334  C4337   0.750   .     S
H4334  C4338   0.750   .     S
C4335  C4337   1.360   .     S
C4335  N4341   1.360   .     D
C4335  H4343   0.950   .     S
C4336  N4342   1.360   .     D
C4336  H4344   0.950   .     S
C4337  C6064   1.360   .     S
C4337  C4338   1.500   .     S
C4338  C4340   1.390   .     S
C4338  C6106   1.390   .     S
C4339  C4340   1.390   .     D
C4339  H4345   0.950   .     S
C4339  C6105   1.390   .     S
C4340  H4346   0.950   .     S
N4341  N6070   1.360   .     S
N4341  Fe4535  2.091   .     S
N4342  Fe4533  2.139   .     S
H4347  C4350   0.750   .     S
H4347  C4351   0.750   .     S
C4348  C4350   1.360   .     S
C4348  N4354   1.360   .     D
C4348  H4356   0.950   .     S
C4349  C4350   1.360   .     S
C4349  N4355   1.360   .     D
C4349  H4357   0.950   .     S
C4350  C4351   1.500   .     S
C4351  C4353   1.390   .     S
C4351  C4417   1.390   .     S
C4352  C4353   1.390   .     D
C4352  H4358   0.950   .     S
C4352  C4416   1.390   .     S
C4353  H4359   0.950   .     S
N4354  N4355   1.360   .     S
N4354  Fe4860  2.091   .     S
N4355  Fe4426  2.139   .     S
H4360  C4363   0.750   .     S
H4360  C4364   0.750   .     S
C4361  C4363   1.360   .     S
C4361  N4367   1.360   .     D
C4361  H4369   0.950   .     S
C4362  C4363   1.360   .     S
C4362  N4368   1.360   .     D
C4362  H4370   0.950   .     S
C4363  C4364   1.500   .     S
C4364  C4366   1.390   .     S
C4364  C4404   1.390   .     S
C4365  C4366   1.390   .     D
C4365  H4371   0.950   .     S
C4365  C4403   1.390   .     S
C4366  H4372   0.950   .     S
N4367  N4368   1.360   .     S
N4367  Fe4427  2.091   .     S
N4368  Fe4425  2.139   .     S
H4373  C4376   0.750   .     S
H4373  C4377   0.750   .     S
C4374  C4376   1.360   .     S
C4374  N4380   1.360   .     D
C4374  H4382   0.950   .     S
C4375  C6104   1.360   .     S
C4375  N4381   1.360   .     D
C4375  H4383   0.950   .     S
C4376  C4377   1.500   .     S
C4377  C4379   1.390   .     S
C4378  C4379   1.390   .     D
C4378  H4384   0.950   .     S
C4379  H4385   0.950   .     S
N4381  N6108   1.360   .     S
N4381  Fe4428  2.139   .     S
H4386  C4389   0.750   .     S
H4386  C4390   0.750   .     S
C4387  C4389   1.360   .     S
C4387  N4393   1.360   .     D
C4387  H4395   0.950   .     S
C4388  C6117   1.360   .     S
C4388  N4394   1.360   .     D
C4388  H4396   0.950   .     S
C4389  C4390   1.500   .     S
C4390  C4392   1.390   .     S
C4391  C4392   1.390   .     D
C4391  H4397   0.950   .     S
C4392  H4398   0.950   .     S
N4393  Fe4425  2.091   .     S
N4394  N6121   1.360   .     S
N4394  Fe4427  2.139   .     S
H4399  C4402   0.750   .     S
H4399  C4403   0.750   .     S
C4400  C4402   1.360   .     S
C4400  N4406   1.360   .     D
C4400  H4408   0.950   .     S
C4401  C4402   1.360   .     S
C4401  N4407   1.360   .     D
C4401  H4409   0.950   .     S
C4402  C4403   1.500   .     S
C4403  C4405   1.390   .     S
C4404  C4405   1.390   .     D
C4404  H4410   0.950   .     S
C4405  H4411   0.950   .     S
N4406  N4407   1.360   .     S
N4407  Fe4428  2.139   .     S
H4412  C4415   0.750   .     S
H4412  C4416   0.750   .     S
C4413  C4415   1.360   .     S
C4413  N4419   1.360   .     D
C4413  H4421   0.950   .     S
C4414  C4415   1.360   .     S
C4414  N4420   1.360   .     D
C4414  H4422   0.950   .     S
C4415  C4416   1.500   .     S
C4416  C4418   1.390   .     S
C4417  C4418   1.390   .     D
C4417  H4423   0.950   .     S
C4418  H4424   0.950   .     S
N4419  N4420   1.360   .     S
N4419  Fe4533  2.091   .     S
N4420  Fe4535  2.139   .     S
Fe4425 N4743   2.091   1_455 S
Fe4425 N4666   2.139   1_455 S
Fe4426 N4812   2.091   .     S
Fe4426 N4838   2.091   .     S
Fe4427 N4665   2.091   1_455 S
Fe4427 N4744   2.139   1_455 S
H4429  C4432   0.750   .     S
H4429  C4433   0.750   .     S
C4430  C4432   1.360   .     S
C4430  N4436   1.360   .     D
C4430  H4438   0.950   .     S
C4431  N4437   1.360   .     D
C4431  H4439   0.950   .     S
C4432  C6159   1.360   .     S
C4432  C4433   1.500   .     S
C4433  C4435   1.390   .     S
C4433  C6227   1.390   .     S
C4434  C4435   1.390   .     D
C4434  H4440   0.950   .     S
C4434  C6226   1.390   .     S
C4435  H4441   0.950   .     S
N4436  N6165   1.360   .     S
N4436  Fe4968  2.091   .     S
N4437  Fe4534  2.139   .     S
H4442  C4445   0.750   .     S
H4442  C4446   0.750   .     S
C4443  C4445   1.360   .     S
C4443  N4449   1.360   .     D
C4443  H4451   0.950   .     S
C4444  N4450   1.360   .     D
C4444  H4452   0.950   .     S
C4445  C6172   1.360   .     S
C4445  C4446   1.500   .     S
C4446  C4448   1.390   .     S
C4446  C6214   1.390   .     S
C4447  C4448   1.390   .     D
C4447  H4453   0.950   .     S
C4447  C6213   1.390   .     S
C4448  H4454   0.950   .     S
N4449  N6178   1.360   .     S
N4449  Fe4643  2.091   .     S
N4450  Fe4641  2.139   .     S
H4455  C4458   0.750   .     S
H4455  C4459   0.750   .     S
C4456  C4458   1.360   .     S
C4456  N4462   1.360   .     D
C4456  H4464   0.950   .     S
C4457  C4458   1.360   .     S
C4457  N4463   1.360   .     D
C4457  H4465   0.950   .     S
C4458  C4459   1.500   .     S
C4459  C4461   1.390   .     S
C4459  C4525   1.390   .     S
C4460  C4461   1.390   .     D
C4460  H4466   0.950   .     S
C4460  C4524   1.390   .     S
C4461  H4467   0.950   .     S
N4462  N4463   1.360   .     S
N4462  Fe4968  2.091   .     S
N4463  Fe4534  2.139   .     S
H4468  C4471   0.750   .     S
H4468  C4472   0.750   .     S
C4469  C4471   1.360   .     S
C4469  N4475   1.360   .     D
C4469  H4477   0.950   .     S
C4470  C4471   1.360   .     S
C4470  N4476   1.360   .     D
C4470  H4478   0.950   .     S
C4471  C4472   1.500   .     S
C4472  C4474   1.390   .     S
C4472  C4512   1.390   .     S
C4473  C4474   1.390   .     D
C4473  H4479   0.950   .     S
C4473  C4511   1.390   .     S
C4474  H4480   0.950   .     S
N4475  N4476   1.360   .     S
N4475  Fe4535  2.091   .     S
N4476  Fe4533  2.139   .     S
H4481  C4484   0.750   .     S
H4481  C4485   0.750   .     S
C4482  C4484   1.360   .     S
C4482  N4488   1.360   .     D
C4482  H4490   0.950   .     S
C4483  C6212   1.360   .     S
C4483  N4489   1.360   .     D
C4483  H4491   0.950   .     S
C4484  C4485   1.500   .     S
C4485  C4487   1.390   .     S
C4486  C4487   1.390   .     D
C4486  H4492   0.950   .     S
C4487  H4493   0.950   .     S
N4489  N6216   1.360   .     S
N4489  Fe4536  2.139   .     S
H4494  C4497   0.750   .     S
H4494  C4498   0.750   .     S
C4495  C4497   1.360   .     S
C4495  N4501   1.360   .     D
C4495  H4503   0.950   .     S
C4496  C6225   1.360   .     S
C4496  N4502   1.360   .     D
C4496  H4504   0.950   .     S
C4497  C4498   1.500   .     S
C4498  C4500   1.390   .     S
C4499  C4500   1.390   .     D
C4499  H4505   0.950   .     S
C4500  H4506   0.950   .     S
N4501  Fe4533  2.091   .     S
N4502  N6229   1.360   .     S
N4502  Fe4535  2.139   .     S
H4507  C4510   0.750   .     S
H4507  C4511   0.750   .     S
C4508  C4510   1.360   .     S
C4508  N4514   1.360   .     D
C4508  H4516   0.950   .     S
C4509  C4510   1.360   .     S
C4509  N4515   1.360   .     D
C4509  H4517   0.950   .     S
C4510  C4511   1.500   .     S
C4511  C4513   1.390   .     S
C4512  C4513   1.390   .     D
C4512  H4518   0.950   .     S
C4513  H4519   0.950   .     S
N4514  N4515   1.360   .     S
N4515  Fe4536  2.139   .     S
H4520  C4523   0.750   .     S
H4520  C4524   0.750   .     S
C4521  C4523   1.360   .     S
C4521  N4527   1.360   .     D
C4521  H4529   0.950   .     S
C4522  C4523   1.360   .     S
C4522  N4528   1.360   .     D
C4522  H4530   0.950   .     S
C4523  C4524   1.500   .     S
C4524  C4526   1.390   .     S
C4525  C4526   1.390   .     D
C4525  H4531   0.950   .     S
C4526  H4532   0.950   .     S
N4527  N4528   1.360   .     S
N4527  Fe4641  2.091   .     S
N4528  Fe4643  2.139   .     S
Fe4534 N4920   2.091   .     S
Fe4534 N4946   2.091   .     S
H4537  C4540   0.750   .     S
H4537  C4541   0.750   .     S
C4538  C4540   1.360   .     S
C4538  N4544   1.360   .     D
C4538  H4546   0.950   .     S
C4539  N4545   1.360   .     D
C4539  H4547   0.950   .     S
C4540  C6267   1.360   .     S
C4540  C4541   1.500   .     S
C4541  C4543   1.390   .     S
C4541  C6335   1.390   .     S
C4542  C4543   1.390   .     D
C4542  H4548   0.950   .     S
C4542  C6334   1.390   .     S
C4543  H4549   0.950   .     S
N4544  N6273   1.360   .     S
N4544  Fe5076  2.091   .     S
N4545  Fe4642  2.139   .     S
H4550  C4553   0.750   .     S
H4550  C4554   0.750   .     S
C4551  C4553   1.360   .     S
C4551  N4557   1.360   .     D
C4551  H4559   0.950   .     S
C4552  N4558   1.360   .     D
C4552  H4560   0.950   .     S
C4553  C6280   1.360   .     S
C4553  C4554   1.500   .     S
C4554  C4556   1.390   .     S
C4554  C6322   1.390   .     S
C4555  C4556   1.390   .     D
C4555  H4561   0.950   .     S
C4555  C6321   1.390   .     S
C4556  H4562   0.950   .     S
N4557  N6286   1.360   .     S
N4557  Fe4751  2.091   .     S
N4558  Fe4749  2.139   .     S
H4563  C4566   0.750   .     S
H4563  C4567   0.750   .     S
C4564  C4566   1.360   .     S
C4564  N4570   1.360   .     D
C4564  H4572   0.950   .     S
C4565  C4566   1.360   .     S
C4565  N4571   1.360   .     D
C4565  H4573   0.950   .     S
C4566  C4567   1.500   .     S
C4567  C4569   1.390   .     S
C4567  C4633   1.390   .     S
C4568  C4569   1.390   .     D
C4568  H4574   0.950   .     S
C4568  C4632   1.390   .     S
C4569  H4575   0.950   .     S
N4570  N4571   1.360   .     S
N4570  Fe5076  2.091   .     S
N4571  Fe4642  2.139   .     S
H4576  C4579   0.750   .     S
H4576  C4580   0.750   .     S
C4577  C4579   1.360   .     S
C4577  N4583   1.360   .     D
C4577  H4585   0.950   .     S
C4578  C4579   1.360   .     S
C4578  N4584   1.360   .     D
C4578  H4586   0.950   .     S
C4579  C4580   1.500   .     S
C4580  C4582   1.390   .     S
C4580  C4620   1.390   .     S
C4581  C4582   1.390   .     D
C4581  H4587   0.950   .     S
C4581  C4619   1.390   .     S
C4582  H4588   0.950   .     S
N4583  N4584   1.360   .     S
N4583  Fe4643  2.091   .     S
N4584  Fe4641  2.139   .     S
H4589  C4592   0.750   .     S
H4589  C4593   0.750   .     S
C4590  C4592   1.360   .     S
C4590  N4596   1.360   .     D
C4590  H4598   0.950   .     S
C4591  C6320   1.360   .     S
C4591  N4597   1.360   .     D
C4591  H4599   0.950   .     S
C4592  C4593   1.500   .     S
C4593  C4595   1.390   .     S
C4594  C4595   1.390   .     D
C4594  H4600   0.950   .     S
C4595  H4601   0.950   .     S
N4597  N6324   1.360   .     S
N4597  Fe4644  2.139   .     S
H4602  C4605   0.750   .     S
H4602  C4606   0.750   .     S
C4603  C4605   1.360   .     S
C4603  N4609   1.360   .     D
C4603  H4611   0.950   .     S
C4604  C6333   1.360   .     S
C4604  N4610   1.360   .     D
C4604  H4612   0.950   .     S
C4605  C4606   1.500   .     S
C4606  C4608   1.390   .     S
C4607  C4608   1.390   .     D
C4607  H4613   0.950   .     S
C4608  H4614   0.950   .     S
N4609  Fe4641  2.091   .     S
N4610  N6337   1.360   .     S
N4610  Fe4643  2.139   .     S
H4615  C4618   0.750   .     S
H4615  C4619   0.750   .     S
C4616  C4618   1.360   .     S
C4616  N4622   1.360   .     D
C4616  H4624   0.950   .     S
C4617  C4618   1.360   .     S
C4617  N4623   1.360   .     D
C4617  H4625   0.950   .     S
C4618  C4619   1.500   .     S
C4619  C4621   1.390   .     S
C4620  C4621   1.390   .     D
C4620  H4626   0.950   .     S
C4621  H4627   0.950   .     S
N4622  N4623   1.360   .     S
N4623  Fe4644  2.139   .     S
H4628  C4631   0.750   .     S
H4628  C4632   0.750   .     S
C4629  C4631   1.360   .     S
C4629  N4635   1.360   .     D
C4629  H4637   0.950   .     S
C4630  C4631   1.360   .     S
C4630  N4636   1.360   .     D
C4630  H4638   0.950   .     S
C4631  C4632   1.500   .     S
C4632  C4634   1.390   .     S
C4633  C4634   1.390   .     D
C4633  H4639   0.950   .     S
C4634  H4640   0.950   .     S
N4635  N4636   1.360   .     S
N4635  Fe4749  2.091   .     S
N4636  Fe4751  2.139   .     S
Fe4642 N5028   2.091   .     S
Fe4642 N5054   2.091   .     S
H4645  C4648   0.750   .     S
H4645  C4649   0.750   .     S
C4646  C4648   1.360   .     S
C4646  N4652   1.360   .     D
C4646  H4654   0.950   .     S
C4647  N4653   1.360   .     D
C4647  H4655   0.950   .     S
C4648  C6375   1.360   .     S
C4648  C4649   1.500   .     S
C4649  C4651   1.390   .     S
C4649  C6443   1.390   .     S
C4650  C4651   1.390   .     D
C4650  H4656   0.950   .     S
C4650  C6442   1.390   .     S
C4651  H4657   0.950   .     S
N4652  N6381   1.360   .     S
N4652  Fe5184  2.091   .     S
N4653  Fe4750  2.139   .     S
H4658  C4661   0.750   .     S
H4658  C4662   0.750   .     S
C4659  C4661   1.360   .     S
C4659  N4665   1.360   .     D
C4659  H4667   0.950   .     S
C4660  N4666   1.360   .     D
C4660  H4668   0.950   .     S
C4661  C6388   1.360   .     S
C4661  C4662   1.500   .     S
C4662  C4664   1.390   .     S
C4662  C6430   1.390   .     S
C4663  C4664   1.390   .     D
C4663  H4669   0.950   .     S
C4663  C6429   1.390   .     S
C4664  H4670   0.950   .     S
N4665  N6394   1.360   .     S
N4665  Fe4427  2.091   1_655 S
N4666  Fe4425  2.139   1_655 S
H4671  C4674   0.750   .     S
H4671  C4675   0.750   .     S
C4672  C4674   1.360   .     S
C4672  N4678   1.360   .     D
C4672  H4680   0.950   .     S
C4673  C4674   1.360   .     S
C4673  N4679   1.360   .     D
C4673  H4681   0.950   .     S
C4674  C4675   1.500   .     S
C4675  C4677   1.390   .     S
C4675  C4741   1.390   .     S
C4676  C4677   1.390   .     D
C4676  H4682   0.950   .     S
C4676  C4740   1.390   .     S
C4677  H4683   0.950   .     S
N4678  N4679   1.360   .     S
N4678  Fe5184  2.091   .     S
N4679  Fe4750  2.139   .     S
H4684  C4687   0.750   .     S
H4684  C4688   0.750   .     S
C4685  C4687   1.360   .     S
C4685  N4691   1.360   .     D
C4685  H4693   0.950   .     S
C4686  C4687   1.360   .     S
C4686  N4692   1.360   .     D
C4686  H4694   0.950   .     S
C4687  C4688   1.500   .     S
C4688  C4690   1.390   .     S
C4688  C4728   1.390   .     S
C4689  C4690   1.390   .     D
C4689  H4695   0.950   .     S
C4689  C4727   1.390   .     S
C4690  H4696   0.950   .     S
N4691  N4692   1.360   .     S
N4691  Fe4751  2.091   .     S
N4692  Fe4749  2.139   .     S
H4697  C4700   0.750   .     S
H4697  C4701   0.750   .     S
C4698  C4700   1.360   .     S
C4698  N4704   1.360   .     D
C4698  H4706   0.950   .     S
C4699  C6428   1.360   .     S
C4699  N4705   1.360   .     D
C4699  H4707   0.950   .     S
C4700  C4701   1.500   .     S
C4701  C4703   1.390   .     S
C4702  C4703   1.390   .     D
C4702  H4708   0.950   .     S
C4703  H4709   0.950   .     S
N4705  N6432   1.360   .     S
N4705  Fe4752  2.139   .     S
H4710  C4713   0.750   .     S
H4710  C4714   0.750   .     S
C4711  C4713   1.360   .     S
C4711  N4717   1.360   .     D
C4711  H4719   0.950   .     S
C4712  C6441   1.360   .     S
C4712  N4718   1.360   .     D
C4712  H4720   0.950   .     S
C4713  C4714   1.500   .     S
C4714  C4716   1.390   .     S
C4715  C4716   1.390   .     D
C4715  H4721   0.950   .     S
C4716  H4722   0.950   .     S
N4717  Fe4749  2.091   .     S
N4718  N6445   1.360   .     S
N4718  Fe4751  2.139   .     S
H4723  C4726   0.750   .     S
H4723  C4727   0.750   .     S
C4724  C4726   1.360   .     S
C4724  N4730   1.360   .     D
C4724  H4732   0.950   .     S
C4725  C4726   1.360   .     S
C4725  N4731   1.360   .     D
C4725  H4733   0.950   .     S
C4726  C4727   1.500   .     S
C4727  C4729   1.390   .     S
C4728  C4729   1.390   .     D
C4728  H4734   0.950   .     S
C4729  H4735   0.950   .     S
N4730  N4731   1.360   .     S
N4731  Fe4752  2.139   .     S
H4736  C4739   0.750   .     S
H4736  C4740   0.750   .     S
C4737  C4739   1.360   .     S
C4737  N4743   1.360   .     D
C4737  H4745   0.950   .     S
C4738  C4739   1.360   .     S
C4738  N4744   1.360   .     D
C4738  H4746   0.950   .     S
C4739  C4740   1.500   .     S
C4740  C4742   1.390   .     S
C4741  C4742   1.390   .     D
C4741  H4747   0.950   .     S
C4742  H4748   0.950   .     S
N4743  N4744   1.360   .     S
N4743  Fe4425  2.091   1_655 S
N4744  Fe4427  2.139   1_655 S
Fe4750 N5136   2.091   .     S
Fe4750 N5162   2.091   .     S
H4753  C4756   0.750   .     S
H4753  C4757   0.750   .     S
C4754  C4756   1.360   .     S
C4754  N4760   1.360   .     D
C4754  H4762   0.950   .     S
C4755  N4761   1.360   .     D
C4755  H4763   0.950   .     S
C4756  C6483   1.360   .     S
C4756  C4757   1.500   .     S
C4757  C4759   1.390   .     S
C4757  C6551   1.390   .     S
C4758  C4759   1.390   .     D
C4758  H4764   0.950   .     S
C4758  C6550   1.390   .     S
C4759  H4765   0.950   .     S
N4760  N6489   1.360   .     S
N4760  Fe3564  2.091   1_565 S
N4761  Fe4858  2.139   .     S
H4766  C4769   0.750   .     S
H4766  C4770   0.750   .     S
C4767  C4769   1.360   .     S
C4767  N4773   1.360   .     D
C4767  H4775   0.950   .     S
C4768  N4774   1.360   .     D
C4768  H4776   0.950   .     S
C4769  C6496   1.360   .     S
C4769  C4770   1.500   .     S
C4770  C4772   1.390   .     S
C4770  C6538   1.390   .     S
C4771  C4772   1.390   .     D
C4771  H4777   0.950   .     S
C4771  C6537   1.390   .     S
C4772  H4778   0.950   .     S
N4773  N6502   1.360   .     S
N4773  Fe4967  2.091   .     S
N4774  Fe4965  2.139   .     S
H4779  C4782   0.750   .     S
H4779  C4783   0.750   .     S
C4780  C4782   1.360   .     S
C4780  N4786   1.360   .     D
C4780  H4788   0.950   .     S
C4781  C4782   1.360   .     S
C4781  N4787   1.360   .     D
C4781  H4789   0.950   .     S
C4782  C4783   1.500   .     S
C4783  C4785   1.390   .     S
C4783  C4849   1.390   .     S
C4784  C4785   1.390   .     D
C4784  H4790   0.950   .     S
C4784  C4848   1.390   .     S
C4785  H4791   0.950   .     S
N4786  N4787   1.360   .     S
N4786  Fe3564  2.091   1_565 S
N4787  Fe4858  2.139   .     S
H4792  C4795   0.750   .     S
H4792  C4796   0.750   .     S
C4793  C4795   1.360   .     S
C4793  N4799   1.360   .     D
C4793  H4801   0.950   .     S
C4794  C4795   1.360   .     S
C4794  N4800   1.360   .     D
C4794  H4802   0.950   .     S
C4795  C4796   1.500   .     S
C4796  C4798   1.390   .     S
C4796  C4836   1.390   .     S
C4797  C4798   1.390   .     D
C4797  H4803   0.950   .     S
C4797  C4835   1.390   .     S
C4798  H4804   0.950   .     S
N4799  N4800   1.360   .     S
N4799  Fe4859  2.091   .     S
N4800  Fe4857  2.139   .     S
H4805  C4808   0.750   .     S
H4805  C4809   0.750   .     S
C4806  C4808   1.360   .     S
C4806  N4812   1.360   .     D
C4806  H4814   0.950   .     S
C4807  C6536   1.360   .     S
C4807  N4813   1.360   .     D
C4807  H4815   0.950   .     S
C4808  C4809   1.500   .     S
C4809  C4811   1.390   .     S
C4810  C4811   1.390   .     D
C4810  H4816   0.950   .     S
C4811  H4817   0.950   .     S
N4813  N6540   1.360   .     S
N4813  Fe4860  2.139   .     S
H4818  C4821   0.750   .     S
H4818  C4822   0.750   .     S
C4819  C4821   1.360   .     S
C4819  N4825   1.360   .     D
C4819  H4827   0.950   .     S
C4820  C6549   1.360   .     S
C4820  N4826   1.360   .     D
C4820  H4828   0.950   .     S
C4821  C4822   1.500   .     S
C4822  C4824   1.390   .     S
C4823  C4824   1.390   .     D
C4823  H4829   0.950   .     S
C4824  H4830   0.950   .     S
N4825  Fe4857  2.091   .     S
N4826  N6553   1.360   .     S
N4826  Fe4859  2.139   .     S
H4831  C4834   0.750   .     S
H4831  C4835   0.750   .     S
C4832  C4834   1.360   .     S
C4832  N4838   1.360   .     D
C4832  H4840   0.950   .     S
C4833  C4834   1.360   .     S
C4833  N4839   1.360   .     D
C4833  H4841   0.950   .     S
C4834  C4835   1.500   .     S
C4835  C4837   1.390   .     S
C4836  C4837   1.390   .     D
C4836  H4842   0.950   .     S
C4837  H4843   0.950   .     S
N4838  N4839   1.360   .     S
N4839  Fe4860  2.139   .     S
H4844  C4847   0.750   .     S
H4844  C4848   0.750   .     S
C4845  C4847   1.360   .     S
C4845  N4851   1.360   .     D
C4845  H4853   0.950   .     S
C4846  C4847   1.360   .     S
C4846  N4852   1.360   .     D
C4846  H4854   0.950   .     S
C4847  C4848   1.500   .     S
C4848  C4850   1.390   .     S
C4849  C4850   1.390   .     D
C4849  H4855   0.950   .     S
C4850  H4856   0.950   .     S
N4851  N4852   1.360   .     S
N4851  Fe4965  2.091   .     S
N4852  Fe4967  2.139   .     S
Fe4857 N5175   2.091   1_455 S
Fe4857 N5098   2.139   1_455 S
Fe4858 N3516   2.091   1_565 S
Fe4858 N3542   2.091   1_565 S
Fe4859 N5097   2.091   1_455 S
Fe4859 N5176   2.139   1_455 S
H4861  C4864   0.750   .     S
H4861  C4865   0.750   .     S
C4862  C4864   1.360   .     S
C4862  N4868   1.360   .     D
C4862  H4870   0.950   .     S
C4863  N4869   1.360   .     D
C4863  H4871   0.950   .     S
C4864  C6591   1.360   .     S
C4864  C4865   1.500   .     S
C4865  C4867   1.390   .     S
C4865  C6659   1.390   .     S
C4866  C4867   1.390   .     D
C4866  H4872   0.950   .     S
C4866  C6658   1.390   .     S
C4867  H4873   0.950   .     S
N4868  N6597   1.360   .     S
N4868  Fe3672  2.091   1_565 S
N4869  Fe4966  2.139   .     S
H4874  C4877   0.750   .     S
H4874  C4878   0.750   .     S
C4875  C4877   1.360   .     S
C4875  N4881   1.360   .     D
C4875  H4883   0.950   .     S
C4876  N4882   1.360   .     D
C4876  H4884   0.950   .     S
C4877  C6604   1.360   .     S
C4877  C4878   1.500   .     S
C4878  C4880   1.390   .     S
C4878  C6646   1.390   .     S
C4879  C4880   1.390   .     D
C4879  H4885   0.950   .     S
C4879  C6645   1.390   .     S
C4880  H4886   0.950   .     S
N4881  N6610   1.360   .     S
N4881  Fe5075  2.091   .     S
N4882  Fe5073  2.139   .     S
H4887  C4890   0.750   .     S
H4887  C4891   0.750   .     S
C4888  C4890   1.360   .     S
C4888  N4894   1.360   .     D
C4888  H4896   0.950   .     S
C4889  C4890   1.360   .     S
C4889  N4895   1.360   .     D
C4889  H4897   0.950   .     S
C4890  C4891   1.500   .     S
C4891  C4893   1.390   .     S
C4891  C4957   1.390   .     S
C4892  C4893   1.390   .     D
C4892  H4898   0.950   .     S
C4892  C4956   1.390   .     S
C4893  H4899   0.950   .     S
N4894  N4895   1.360   .     S
N4894  Fe3672  2.091   1_565 S
N4895  Fe4966  2.139   .     S
H4900  C4903   0.750   .     S
H4900  C4904   0.750   .     S
C4901  C4903   1.360   .     S
C4901  N4907   1.360   .     D
C4901  H4909   0.950   .     S
C4902  C4903   1.360   .     S
C4902  N4908   1.360   .     D
C4902  H4910   0.950   .     S
C4903  C4904   1.500   .     S
C4904  C4906   1.390   .     S
C4904  C4944   1.390   .     S
C4905  C4906   1.390   .     D
C4905  H4911   0.950   .     S
C4905  C4943   1.390   .     S
C4906  H4912   0.950   .     S
N4907  N4908   1.360   .     S
N4907  Fe4967  2.091   .     S
N4908  Fe4965  2.139   .     S
H4913  C4916   0.750   .     S
H4913  C4917   0.750   .     S
C4914  C4916   1.360   .     S
C4914  N4920   1.360   .     D
C4914  H4922   0.950   .     S
C4915  C6644   1.360   .     S
C4915  N4921   1.360   .     D
C4915  H4923   0.950   .     S
C4916  C4917   1.500   .     S
C4917  C4919   1.390   .     S
C4918  C4919   1.390   .     D
C4918  H4924   0.950   .     S
C4919  H4925   0.950   .     S
N4921  N6648   1.360   .     S
N4921  Fe4968  2.139   .     S
H4926  C4929   0.750   .     S
H4926  C4930   0.750   .     S
C4927  C4929   1.360   .     S
C4927  N4933   1.360   .     D
C4927  H4935   0.950   .     S
C4928  C6657   1.360   .     S
C4928  N4934   1.360   .     D
C4928  H4936   0.950   .     S
C4929  C4930   1.500   .     S
C4930  C4932   1.390   .     S
C4931  C4932   1.390   .     D
C4931  H4937   0.950   .     S
C4932  H4938   0.950   .     S
N4933  Fe4965  2.091   .     S
N4934  N6661   1.360   .     S
N4934  Fe4967  2.139   .     S
H4939  C4942   0.750   .     S
H4939  C4943   0.750   .     S
C4940  C4942   1.360   .     S
C4940  N4946   1.360   .     D
C4940  H4948   0.950   .     S
C4941  C4942   1.360   .     S
C4941  N4947   1.360   .     D
C4941  H4949   0.950   .     S
C4942  C4943   1.500   .     S
C4943  C4945   1.390   .     S
C4944  C4945   1.390   .     D
C4944  H4950   0.950   .     S
C4945  H4951   0.950   .     S
N4946  N4947   1.360   .     S
N4947  Fe4968  2.139   .     S
H4952  C4955   0.750   .     S
H4952  C4956   0.750   .     S
C4953  C4955   1.360   .     S
C4953  N4959   1.360   .     D
C4953  H4961   0.950   .     S
C4954  C4955   1.360   .     S
C4954  N4960   1.360   .     D
C4954  H4962   0.950   .     S
C4955  C4956   1.500   .     S
C4956  C4958   1.390   .     S
C4957  C4958   1.390   .     D
C4957  H4963   0.950   .     S
C4958  H4964   0.950   .     S
N4959  N4960   1.360   .     S
N4959  Fe5073  2.091   .     S
N4960  Fe5075  2.139   .     S
Fe4966 N3624   2.091   1_565 S
Fe4966 N3650   2.091   1_565 S
H4969  C4972   0.750   .     S
H4969  C4973   0.750   .     S
C4970  C4972   1.360   .     S
C4970  N4976   1.360   .     D
C4970  H4978   0.950   .     S
C4971  N4977   1.360   .     D
C4971  H4979   0.950   .     S
C4972  C6699   1.360   .     S
C4972  C4973   1.500   .     S
C4973  C4975   1.390   .     S
C4973  C6767   1.390   .     S
C4974  C4975   1.390   .     D
C4974  H4980   0.950   .     S
C4974  C6766   1.390   .     S
C4975  H4981   0.950   .     S
N4976  N6705   1.360   .     S
N4976  Fe3780  2.091   1_565 S
N4977  Fe5074  2.139   .     S
H4982  C4985   0.750   .     S
H4982  C4986   0.750   .     S
C4983  C4985   1.360   .     S
C4983  N4989   1.360   .     D
C4983  H4991   0.950   .     S
C4984  N4990   1.360   .     D
C4984  H4992   0.950   .     S
C4985  C6712   1.360   .     S
C4985  C4986   1.500   .     S
C4986  C4988   1.390   .     S
C4986  C6754   1.390   .     S
C4987  C4988   1.390   .     D
C4987  H4993   0.950   .     S
C4987  C6753   1.390   .     S
C4988  H4994   0.950   .     S
N4989  N6718   1.360   .     S
N4989  Fe5183  2.091   .     S
N4990  Fe5181  2.139   .     S
H4995  C4998   0.750   .     S
H4995  C4999   0.750   .     S
C4996  C4998   1.360   .     S
C4996  N5002   1.360   .     D
C4996  H5004   0.950   .     S
C4997  C4998   1.360   .     S
C4997  N5003   1.360   .     D
C4997  H5005   0.950   .     S
C4998  C4999   1.500   .     S
C4999  C5001   1.390   .     S
C4999  C5065   1.390   .     S
C5000  C5001   1.390   .     D
C5000  H5006   0.950   .     S
C5000  C5064   1.390   .     S
C5001  H5007   0.950   .     S
N5002  N5003   1.360   .     S
N5002  Fe3780  2.091   1_565 S
N5003  Fe5074  2.139   .     S
H5008  C5011   0.750   .     S
H5008  C5012   0.750   .     S
C5009  C5011   1.360   .     S
C5009  N5015   1.360   .     D
C5009  H5017   0.950   .     S
C5010  C5011   1.360   .     S
C5010  N5016   1.360   .     D
C5010  H5018   0.950   .     S
C5011  C5012   1.500   .     S
C5012  C5014   1.390   .     S
C5012  C5052   1.390   .     S
C5013  C5014   1.390   .     D
C5013  H5019   0.950   .     S
C5013  C5051   1.390   .     S
C5014  H5020   0.950   .     S
N5015  N5016   1.360   .     S
N5015  Fe5075  2.091   .     S
N5016  Fe5073  2.139   .     S
H5021  C5024   0.750   .     S
H5021  C5025   0.750   .     S
C5022  C5024   1.360   .     S
C5022  N5028   1.360   .     D
C5022  H5030   0.950   .     S
C5023  C6752   1.360   .     S
C5023  N5029   1.360   .     D
C5023  H5031   0.950   .     S
C5024  C5025   1.500   .     S
C5025  C5027   1.390   .     S
C5026  C5027   1.390   .     D
C5026  H5032   0.950   .     S
C5027  H5033   0.950   .     S
N5029  N6756   1.360   .     S
N5029  Fe5076  2.139   .     S
H5034  C5037   0.750   .     S
H5034  C5038   0.750   .     S
C5035  C5037   1.360   .     S
C5035  N5041   1.360   .     D
C5035  H5043   0.950   .     S
C5036  C6765   1.360   .     S
C5036  N5042   1.360   .     D
C5036  H5044   0.950   .     S
C5037  C5038   1.500   .     S
C5038  C5040   1.390   .     S
C5039  C5040   1.390   .     D
C5039  H5045   0.950   .     S
C5040  H5046   0.950   .     S
N5041  Fe5073  2.091   .     S
N5042  N6769   1.360   .     S
N5042  Fe5075  2.139   .     S
H5047  C5050   0.750   .     S
H5047  C5051   0.750   .     S
C5048  C5050   1.360   .     S
C5048  N5054   1.360   .     D
C5048  H5056   0.950   .     S
C5049  C5050   1.360   .     S
C5049  N5055   1.360   .     D
C5049  H5057   0.950   .     S
C5050  C5051   1.500   .     S
C5051  C5053   1.390   .     S
C5052  C5053   1.390   .     D
C5052  H5058   0.950   .     S
C5053  H5059   0.950   .     S
N5054  N5055   1.360   .     S
N5055  Fe5076  2.139   .     S
H5060  C5063   0.750   .     S
H5060  C5064   0.750   .     S
C5061  C5063   1.360   .     S
C5061  N5067   1.360   .     D
C5061  H5069   0.950   .     S
C5062  C5063   1.360   .     S
C5062  N5068   1.360   .     D
C5062  H5070   0.950   .     S
C5063  C5064   1.500   .     S
C5064  C5066   1.390   .     S
C5065  C5066   1.390   .     D
C5065  H5071   0.950   .     S
C5066  H5072   0.950   .     S
N5067  N5068   1.360   .     S
N5067  Fe5181  2.091   .     S
N5068  Fe5183  2.139   .     S
Fe5074 N3732   2.091   1_565 S
Fe5074 N3758   2.091   1_565 S
H5077  C5080   0.750   .     S
H5077  C5081   0.750   .     S
C5078  C5080   1.360   .     S
C5078  N5084   1.360   .     D
C5078  H5086   0.950   .     S
C5079  N5085   1.360   .     D
C5079  H5087   0.950   .     S
C5080  C6807   1.360   .     S
C5080  C5081   1.500   .     S
C5081  C5083   1.390   .     S
C5081  C6875   1.390   .     S
C5082  C5083   1.390   .     D
C5082  H5088   0.950   .     S
C5082  C6874   1.390   .     S
C5083  H5089   0.950   .     S
N5084  N6813   1.360   .     S
N5084  Fe3888  2.091   1_565 S
N5085  Fe5182  2.139   .     S
H5090  C5093   0.750   .     S
H5090  C5094   0.750   .     S
C5091  C5093   1.360   .     S
C5091  N5097   1.360   .     D
C5091  H5099   0.950   .     S
C5092  N5098   1.360   .     D
C5092  H5100   0.950   .     S
C5093  C6820   1.360   .     S
C5093  C5094   1.500   .     S
C5094  C5096   1.390   .     S
C5094  C6862   1.390   .     S
C5095  C5096   1.390   .     D
C5095  H5101   0.950   .     S
C5095  C6861   1.390   .     S
C5096  H5102   0.950   .     S
N5097  N6826   1.360   .     S
N5097  Fe4859  2.091   1_655 S
N5098  Fe4857  2.139   1_655 S
H5103  C5106   0.750   .     S
H5103  C5107   0.750   .     S
C5104  C5106   1.360   .     S
C5104  N5110   1.360   .     D
C5104  H5112   0.950   .     S
C5105  C5106   1.360   .     S
C5105  N5111   1.360   .     D
C5105  H5113   0.950   .     S
C5106  C5107   1.500   .     S
C5107  C5109   1.390   .     S
C5107  C5173   1.390   .     S
C5108  C5109   1.390   .     D
C5108  H5114   0.950   .     S
C5108  C5172   1.390   .     S
C5109  H5115   0.950   .     S
N5110  N5111   1.360   .     S
N5110  Fe3888  2.091   1_565 S
N5111  Fe5182  2.139   .     S
H5116  C5119   0.750   .     S
H5116  C5120   0.750   .     S
C5117  C5119   1.360   .     S
C5117  N5123   1.360   .     D
C5117  H5125   0.950   .     S
C5118  C5119   1.360   .     S
C5118  N5124   1.360   .     D
C5118  H5126   0.950   .     S
C5119  C5120   1.500   .     S
C5120  C5122   1.390   .     S
C5120  C5160   1.390   .     S
C5121  C5122   1.390   .     D
C5121  H5127   0.950   .     S
C5121  C5159   1.390   .     S
C5122  H5128   0.950   .     S
N5123  N5124   1.360   .     S
N5123  Fe5183  2.091   .     S
N5124  Fe5181  2.139   .     S
H5129  C5132   0.750   .     S
H5129  C5133   0.750   .     S
C5130  C5132   1.360   .     S
C5130  N5136   1.360   .     D
C5130  H5138   0.950   .     S
C5131  C6860   1.360   .     S
C5131  N5137   1.360   .     D
C5131  H5139   0.950   .     S
C5132  C5133   1.500   .     S
C5133  C5135   1.390   .     S
C5134  C5135   1.390   .     D
C5134  H5140   0.950   .     S
C5135  H5141   0.950   .     S
N5137  N6864   1.360   .     S
N5137  Fe5184  2.139   .     S
H5142  C5145   0.750   .     S
H5142  C5146   0.750   .     S
C5143  C5145   1.360   .     S
C5143  N5149   1.360   .     D
C5143  H5151   0.950   .     S
C5144  C6873   1.360   .     S
C5144  N5150   1.360   .     D
C5144  H5152   0.950   .     S
C5145  C5146   1.500   .     S
C5146  C5148   1.390   .     S
C5147  C5148   1.390   .     D
C5147  H5153   0.950   .     S
C5148  H5154   0.950   .     S
N5149  Fe5181  2.091   .     S
N5150  N6877   1.360   .     S
N5150  Fe5183  2.139   .     S
H5155  C5158   0.750   .     S
H5155  C5159   0.750   .     S
C5156  C5158   1.360   .     S
C5156  N5162   1.360   .     D
C5156  H5164   0.950   .     S
C5157  C5158   1.360   .     S
C5157  N5163   1.360   .     D
C5157  H5165   0.950   .     S
C5158  C5159   1.500   .     S
C5159  C5161   1.390   .     S
C5160  C5161   1.390   .     D
C5160  H5166   0.950   .     S
C5161  H5167   0.950   .     S
N5162  N5163   1.360   .     S
N5163  Fe5184  2.139   .     S
H5168  C5171   0.750   .     S
H5168  C5172   0.750   .     S
C5169  C5171   1.360   .     S
C5169  N5175   1.360   .     D
C5169  H5177   0.950   .     S
C5170  C5171   1.360   .     S
C5170  N5176   1.360   .     D
C5170  H5178   0.950   .     S
C5171  C5172   1.500   .     S
C5172  C5174   1.390   .     S
C5173  C5174   1.390   .     D
C5173  H5179   0.950   .     S
C5174  H5180   0.950   .     S
N5175  N5176   1.360   .     S
N5175  Fe4857  2.091   1_655 S
N5176  Fe4859  2.139   1_655 S
Fe5182 N3840   2.091   1_565 S
Fe5182 N3866   2.091   1_565 S
H5185  C5188   0.750   .     S
H5185  C5189   0.750   .     S
C5186  C5188   1.360   .     S
C5186  N5192   1.360   .     D
C5186  H5194   0.950   .     S
C5187  N5193   1.360   .     D
C5187  H5195   0.950   .     S
C5188  C3      1.360   1_556 S
C5188  C5189   1.500   .     S
C5189  C5191   1.390   .     S
C5189  C71     1.390   1_556 S
C5190  C5191   1.390   .     D
C5190  H5196   0.950   .     S
C5190  C70     1.390   1_556 S
C5191  H5197   0.950   .     S
N5192  N9      1.360   1_556 S
N5192  Fe5724  2.091   .     S
N5193  Fe5290  2.139   .     S
H5198  C5201   0.750   .     S
H5198  C5202   0.750   .     S
C5199  C5201   1.360   .     S
C5199  N5205   1.360   .     D
C5199  H5207   0.950   .     S
C5200  N5206   1.360   .     D
C5200  H5208   0.950   .     S
C5201  C16     1.360   1_556 S
C5201  C5202   1.500   .     S
C5202  C5204   1.390   .     S
C5202  C58     1.390   1_556 S
C5203  C5204   1.390   .     D
C5203  H5209   0.950   .     S
C5203  C57     1.390   1_556 S
C5204  H5210   0.950   .     S
N5205  N22     1.360   1_556 S
N5205  Fe5399  2.091   .     S
N5206  Fe5397  2.139   .     S
H5211  C5214   0.750   .     S
H5211  C5215   0.750   .     S
C5212  C5214   1.360   .     S
C5212  N5218   1.360   .     D
C5212  H5220   0.950   .     S
C5213  C5214   1.360   .     S
C5213  N5219   1.360   .     D
C5213  H5221   0.950   .     S
C5214  C5215   1.500   .     S
C5215  C5217   1.390   .     S
C5215  C5281   1.390   .     S
C5216  C5217   1.390   .     D
C5216  H5222   0.950   .     S
C5216  C5280   1.390   .     S
C5217  H5223   0.950   .     S
N5218  N5219   1.360   .     S
N5218  Fe5724  2.091   .     S
N5219  Fe5290  2.139   .     S
H5224  C5227   0.750   .     S
H5224  C5228   0.750   .     S
C5225  C5227   1.360   .     S
C5225  N5231   1.360   .     D
C5225  H5233   0.950   .     S
C5226  C5227   1.360   .     S
C5226  N5232   1.360   .     D
C5226  H5234   0.950   .     S
C5227  C5228   1.500   .     S
C5228  C5230   1.390   .     S
C5228  C5268   1.390   .     S
C5229  C5230   1.390   .     D
C5229  H5235   0.950   .     S
C5229  C5267   1.390   .     S
C5230  H5236   0.950   .     S
N5231  N5232   1.360   .     S
N5231  Fe5291  2.091   .     S
N5232  Fe5289  2.139   .     S
H5237  C5240   0.750   .     S
H5237  C5241   0.750   .     S
C5238  C5240   1.360   .     S
C5238  N5244   1.360   .     D
C5238  H5246   0.950   .     S
C5239  C56     1.360   1_556 S
C5239  N5245   1.360   .     D
C5239  H5247   0.950   .     S
C5240  C5241   1.500   .     S
C5241  C5243   1.390   .     S
C5242  C5243   1.390   .     D
C5242  H5248   0.950   .     S
C5243  H5249   0.950   .     S
N5244  Fe6586  2.091   1_545 S
N5245  N60     1.360   1_556 S
N5245  Fe5292  2.139   .     S
H5250  C5253   0.750   .     S
H5250  C5254   0.750   .     S
C5251  C5253   1.360   .     S
C5251  N5257   1.360   .     D
C5251  H5259   0.950   .     S
C5252  C69     1.360   1_556 S
C5252  N5258   1.360   .     D
C5252  H5260   0.950   .     S
C5253  C5254   1.500   .     S
C5254  C5256   1.390   .     S
C5255  C5256   1.390   .     D
C5255  H5261   0.950   .     S
C5256  H5262   0.950   .     S
N5257  Fe5289  2.091   .     S
N5258  N73     1.360   1_556 S
N5258  Fe5291  2.139   .     S
H5263  C5266   0.750   .     S
H5263  C5267   0.750   .     S
C5264  C5266   1.360   .     S
C5264  N5270   1.360   .     D
C5264  H5272   0.950   .     S
C5265  C5266   1.360   .     S
C5265  N5271   1.360   .     D
C5265  H5273   0.950   .     S
C5266  C5267   1.500   .     S
C5267  C5269   1.390   .     S
C5268  C5269   1.390   .     D
C5268  H5274   0.950   .     S
C5269  H5275   0.950   .     S
N5270  N5271   1.360   .     S
N5270  Fe6586  2.091   1_545 S
N5271  Fe5292  2.139   .     S
H5276  C5279   0.750   .     S
H5276  C5280   0.750   .     S
C5277  C5279   1.360   .     S
C5277  N5283   1.360   .     D
C5277  H5285   0.950   .     S
C5278  C5279   1.360   .     S
C5278  N5284   1.360   .     D
C5278  H5286   0.950   .     S
C5279  C5280   1.500   .     S
C5280  C5282   1.390   .     S
C5281  C5282   1.390   .     D
C5281  H5287   0.950   .     S
C5282  H5288   0.950   .     S
N5283  N5284   1.360   .     S
N5283  Fe5397  2.091   .     S
N5284  Fe5399  2.139   .     S
Fe5289 N5607   2.091   1_455 S
Fe5289 N5530   2.139   1_455 S
Fe5290 N5676   2.091   .     S
Fe5290 N5702   2.091   .     S
Fe5291 N5529   2.091   1_455 S
Fe5291 N5608   2.139   1_455 S
Fe5292 N6488   2.091   1_545 S
Fe5292 N6514   2.091   1_545 S
H5293  C5296   0.750   .     S
H5293  C5297   0.750   .     S
C5294  C5296   1.360   .     S
C5294  N5300   1.360   .     D
C5294  H5302   0.950   .     S
C5295  N5301   1.360   .     D
C5295  H5303   0.950   .     S
C5296  C111    1.360   1_556 S
C5296  C5297   1.500   .     S
C5297  C5299   1.390   .     S
C5297  C179    1.390   1_556 S
C5298  C5299   1.390   .     D
C5298  H5304   0.950   .     S
C5298  C178    1.390   1_556 S
C5299  H5305   0.950   .     S
N5300  N117    1.360   1_556 S
N5300  Fe5832  2.091   .     S
N5301  Fe5398  2.139   .     S
H5306  C5309   0.750   .     S
H5306  C5310   0.750   .     S
C5307  C5309   1.360   .     S
C5307  N5313   1.360   .     D
C5307  H5315   0.950   .     S
C5308  N5314   1.360   .     D
C5308  H5316   0.950   .     S
C5309  C124    1.360   1_556 S
C5309  C5310   1.500   .     S
C5310  C5312   1.390   .     S
C5310  C166    1.390   1_556 S
C5311  C5312   1.390   .     D
C5311  H5317   0.950   .     S
C5311  C165    1.390   1_556 S
C5312  H5318   0.950   .     S
N5313  N130    1.360   1_556 S
N5313  Fe5507  2.091   .     S
N5314  Fe5505  2.139   .     S
H5319  C5322   0.750   .     S
H5319  C5323   0.750   .     S
C5320  C5322   1.360   .     S
C5320  N5326   1.360   .     D
C5320  H5328   0.950   .     S
C5321  C5322   1.360   .     S
C5321  N5327   1.360   .     D
C5321  H5329   0.950   .     S
C5322  C5323   1.500   .     S
C5323  C5325   1.390   .     S
C5323  C5389   1.390   .     S
C5324  C5325   1.390   .     D
C5324  H5330   0.950   .     S
C5324  C5388   1.390   .     S
C5325  H5331   0.950   .     S
N5326  N5327   1.360   .     S
N5326  Fe5832  2.091   .     S
N5327  Fe5398  2.139   .     S
H5332  C5335   0.750   .     S
H5332  C5336   0.750   .     S
C5333  C5335   1.360   .     S
C5333  N5339   1.360   .     D
C5333  H5341   0.950   .     S
C5334  C5335   1.360   .     S
C5334  N5340   1.360   .     D
C5334  H5342   0.950   .     S
C5335  C5336   1.500   .     S
C5336  C5338   1.390   .     S
C5336  C5376   1.390   .     S
C5337  C5338   1.390   .     D
C5337  H5343   0.950   .     S
C5337  C5375   1.390   .     S
C5338  H5344   0.950   .     S
N5339  N5340   1.360   .     S
N5339  Fe5399  2.091   .     S
N5340  Fe5397  2.139   .     S
H5345  C5348   0.750   .     S
H5345  C5349   0.750   .     S
C5346  C5348   1.360   .     S
C5346  N5352   1.360   .     D
C5346  H5354   0.950   .     S
C5347  C164    1.360   1_556 S
C5347  N5353   1.360   .     D
C5347  H5355   0.950   .     S
C5348  C5349   1.500   .     S
C5349  C5351   1.390   .     S
C5350  C5351   1.390   .     D
C5350  H5356   0.950   .     S
C5351  H5357   0.950   .     S
N5352  Fe6694  2.091   1_545 S
N5353  N168    1.360   1_556 S
N5353  Fe5400  2.139   .     S
H5358  C5361   0.750   .     S
H5358  C5362   0.750   .     S
C5359  C5361   1.360   .     S
C5359  N5365   1.360   .     D
C5359  H5367   0.950   .     S
C5360  C177    1.360   1_556 S
C5360  N5366   1.360   .     D
C5360  H5368   0.950   .     S
C5361  C5362   1.500   .     S
C5362  C5364   1.390   .     S
C5363  C5364   1.390   .     D
C5363  H5369   0.950   .     S
C5364  H5370   0.950   .     S
N5365  Fe5397  2.091   .     S
N5366  N181    1.360   1_556 S
N5366  Fe5399  2.139   .     S
H5371  C5374   0.750   .     S
H5371  C5375   0.750   .     S
C5372  C5374   1.360   .     S
C5372  N5378   1.360   .     D
C5372  H5380   0.950   .     S
C5373  C5374   1.360   .     S
C5373  N5379   1.360   .     D
C5373  H5381   0.950   .     S
C5374  C5375   1.500   .     S
C5375  C5377   1.390   .     S
C5376  C5377   1.390   .     D
C5376  H5382   0.950   .     S
C5377  H5383   0.950   .     S
N5378  N5379   1.360   .     S
N5378  Fe6694  2.091   1_545 S
N5379  Fe5400  2.139   .     S
H5384  C5387   0.750   .     S
H5384  C5388   0.750   .     S
C5385  C5387   1.360   .     S
C5385  N5391   1.360   .     D
C5385  H5393   0.950   .     S
C5386  C5387   1.360   .     S
C5386  N5392   1.360   .     D
C5386  H5394   0.950   .     S
C5387  C5388   1.500   .     S
C5388  C5390   1.390   .     S
C5389  C5390   1.390   .     D
C5389  H5395   0.950   .     S
C5390  H5396   0.950   .     S
N5391  N5392   1.360   .     S
N5391  Fe5505  2.091   .     S
N5392  Fe5507  2.139   .     S
Fe5398 N5784   2.091   .     S
Fe5398 N5810   2.091   .     S
Fe5400 N6596   2.091   1_545 S
Fe5400 N6622   2.091   1_545 S
H5401  C5404   0.750   .     S
H5401  C5405   0.750   .     S
C5402  C5404   1.360   .     S
C5402  N5408   1.360   .     D
C5402  H5410   0.950   .     S
C5403  N5409   1.360   .     D
C5403  H5411   0.950   .     S
C5404  C219    1.360   1_556 S
C5404  C5405   1.500   .     S
C5405  C5407   1.390   .     S
C5405  C287    1.390   1_556 S
C5406  C5407   1.390   .     D
C5406  H5412   0.950   .     S
C5406  C286    1.390   1_556 S
C5407  H5413   0.950   .     S
N5408  N225    1.360   1_556 S
N5408  Fe5940  2.091   .     S
N5409  Fe5506  2.139   .     S
H5414  C5417   0.750   .     S
H5414  C5418   0.750   .     S
C5415  C5417   1.360   .     S
C5415  N5421   1.360   .     D
C5415  H5423   0.950   .     S
C5416  N5422   1.360   .     D
C5416  H5424   0.950   .     S
C5417  C232    1.360   1_556 S
C5417  C5418   1.500   .     S
C5418  C5420   1.390   .     S
C5418  C274    1.390   1_556 S
C5419  C5420   1.390   .     D
C5419  H5425   0.950   .     S
C5419  C273    1.390   1_556 S
C5420  H5426   0.950   .     S
N5421  N238    1.360   1_556 S
N5421  Fe5615  2.091   .     S
N5422  Fe5613  2.139   .     S
H5427  C5430   0.750   .     S
H5427  C5431   0.750   .     S
C5428  C5430   1.360   .     S
C5428  N5434   1.360   .     D
C5428  H5436   0.950   .     S
C5429  C5430   1.360   .     S
C5429  N5435   1.360   .     D
C5429  H5437   0.950   .     S
C5430  C5431   1.500   .     S
C5431  C5433   1.390   .     S
C5431  C5497   1.390   .     S
C5432  C5433   1.390   .     D
C5432  H5438   0.950   .     S
C5432  C5496   1.390   .     S
C5433  H5439   0.950   .     S
N5434  N5435   1.360   .     S
N5434  Fe5940  2.091   .     S
N5435  Fe5506  2.139   .     S
H5440  C5443   0.750   .     S
H5440  C5444   0.750   .     S
C5441  C5443   1.360   .     S
C5441  N5447   1.360   .     D
C5441  H5449   0.950   .     S
C5442  C5443   1.360   .     S
C5442  N5448   1.360   .     D
C5442  H5450   0.950   .     S
C5443  C5444   1.500   .     S
C5444  C5446   1.390   .     S
C5444  C5484   1.390   .     S
C5445  C5446   1.390   .     D
C5445  H5451   0.950   .     S
C5445  C5483   1.390   .     S
C5446  H5452   0.950   .     S
N5447  N5448   1.360   .     S
N5447  Fe5507  2.091   .     S
N5448  Fe5505  2.139   .     S
H5453  C5456   0.750   .     S
H5453  C5457   0.750   .     S
C5454  C5456   1.360   .     S
C5454  N5460   1.360   .     D
C5454  H5462   0.950   .     S
C5455  C272    1.360   1_556 S
C5455  N5461   1.360   .     D
C5455  H5463   0.950   .     S
C5456  C5457   1.500   .     S
C5457  C5459   1.390   .     S
C5458  C5459   1.390   .     D
C5458  H5464   0.950   .     S
C5459  H5465   0.950   .     S
N5460  Fe6802  2.091   1_545 S
N5461  N276    1.360   1_556 S
N5461  Fe5508  2.139   .     S
H5466  C5469   0.750   .     S
H5466  C5470   0.750   .     S
C5467  C5469   1.360   .     S
C5467  N5473   1.360   .     D
C5467  H5475   0.950   .     S
C5468  C285    1.360   1_556 S
C5468  N5474   1.360   .     D
C5468  H5476   0.950   .     S
C5469  C5470   1.500   .     S
C5470  C5472   1.390   .     S
C5471  C5472   1.390   .     D
C5471  H5477   0.950   .     S
C5472  H5478   0.950   .     S
N5473  Fe5505  2.091   .     S
N5474  N289    1.360   1_556 S
N5474  Fe5507  2.139   .     S
H5479  C5482   0.750   .     S
H5479  C5483   0.750   .     S
C5480  C5482   1.360   .     S
C5480  N5486   1.360   .     D
C5480  H5488   0.950   .     S
C5481  C5482   1.360   .     S
C5481  N5487   1.360   .     D
C5481  H5489   0.950   .     S
C5482  C5483   1.500   .     S
C5483  C5485   1.390   .     S
C5484  C5485   1.390   .     D
C5484  H5490   0.950   .     S
C5485  H5491   0.950   .     S
N5486  N5487   1.360   .     S
N5486  Fe6802  2.091   1_545 S
N5487  Fe5508  2.139   .     S
H5492  C5495   0.750   .     S
H5492  C5496   0.750   .     S
C5493  C5495   1.360   .     S
C5493  N5499   1.360   .     D
C5493  H5501   0.950   .     S
C5494  C5495   1.360   .     S
C5494  N5500   1.360   .     D
C5494  H5502   0.950   .     S
C5495  C5496   1.500   .     S
C5496  C5498   1.390   .     S
C5497  C5498   1.390   .     D
C5497  H5503   0.950   .     S
C5498  H5504   0.950   .     S
N5499  N5500   1.360   .     S
N5499  Fe5613  2.091   .     S
N5500  Fe5615  2.139   .     S
Fe5506 N5892   2.091   .     S
Fe5506 N5918   2.091   .     S
Fe5508 N6704   2.091   1_545 S
Fe5508 N6730   2.091   1_545 S
H5509  C5512   0.750   .     S
H5509  C5513   0.750   .     S
C5510  C5512   1.360   .     S
C5510  N5516   1.360   .     D
C5510  H5518   0.950   .     S
C5511  N5517   1.360   .     D
C5511  H5519   0.950   .     S
C5512  C327    1.360   1_556 S
C5512  C5513   1.500   .     S
C5513  C5515   1.390   .     S
C5513  C395    1.390   1_556 S
C5514  C5515   1.390   .     D
C5514  H5520   0.950   .     S
C5514  C394    1.390   1_556 S
C5515  H5521   0.950   .     S
N5516  N333    1.360   1_556 S
N5516  Fe6048  2.091   .     S
N5517  Fe5614  2.139   .     S
H5522  C5525   0.750   .     S
H5522  C5526   0.750   .     S
C5523  C5525   1.360   .     S
C5523  N5529   1.360   .     D
C5523  H5531   0.950   .     S
C5524  N5530   1.360   .     D
C5524  H5532   0.950   .     S
C5525  C340    1.360   1_556 S
C5525  C5526   1.500   .     S
C5526  C5528   1.390   .     S
C5526  C382    1.390   1_556 S
C5527  C5528   1.390   .     D
C5527  H5533   0.950   .     S
C5527  C381    1.390   1_556 S
C5528  H5534   0.950   .     S
N5529  N346    1.360   1_556 S
N5529  Fe5291  2.091   1_655 S
N5530  Fe5289  2.139   1_655 S
H5535  C5538   0.750   .     S
H5535  C5539   0.750   .     S
C5536  C5538   1.360   .     S
C5536  N5542   1.360   .     D
C5536  H5544   0.950   .     S
C5537  C5538   1.360   .     S
C5537  N5543   1.360   .     D
C5537  H5545   0.950   .     S
C5538  C5539   1.500   .     S
C5539  C5541   1.390   .     S
C5539  C5605   1.390   .     S
C5540  C5541   1.390   .     D
C5540  H5546   0.950   .     S
C5540  C5604   1.390   .     S
C5541  H5547   0.950   .     S
N5542  N5543   1.360   .     S
N5542  Fe6048  2.091   .     S
N5543  Fe5614  2.139   .     S
H5548  C5551   0.750   .     S
H5548  C5552   0.750   .     S
C5549  C5551   1.360   .     S
C5549  N5555   1.360   .     D
C5549  H5557   0.950   .     S
C5550  C5551   1.360   .     S
C5550  N5556   1.360   .     D
C5550  H5558   0.950   .     S
C5551  C5552   1.500   .     S
C5552  C5554   1.390   .     S
C5552  C5592   1.390   .     S
C5553  C5554   1.390   .     D
C5553  H5559   0.950   .     S
C5553  C5591   1.390   .     S
C5554  H5560   0.950   .     S
N5555  N5556   1.360   .     S
N5555  Fe5615  2.091   .     S
N5556  Fe5613  2.139   .     S
H5561  C5564   0.750   .     S
H5561  C5565   0.750   .     S
C5562  C5564   1.360   .     S
C5562  N5568   1.360   .     D
C5562  H5570   0.950   .     S
C5563  C380    1.360   1_556 S
C5563  N5569   1.360   .     D
C5563  H5571   0.950   .     S
C5564  C5565   1.500   .     S
C5565  C5567   1.390   .     S
C5566  C5567   1.390   .     D
C5566  H5572   0.950   .     S
C5567  H5573   0.950   .     S
N5568  Fe6910  2.091   1_545 S
N5569  N384    1.360   1_556 S
N5569  Fe5616  2.139   .     S
H5574  C5577   0.750   .     S
H5574  C5578   0.750   .     S
C5575  C5577   1.360   .     S
C5575  N5581   1.360   .     D
C5575  H5583   0.950   .     S
C5576  C393    1.360   1_556 S
C5576  N5582   1.360   .     D
C5576  H5584   0.950   .     S
C5577  C5578   1.500   .     S
C5578  C5580   1.390   .     S
C5579  C5580   1.390   .     D
C5579  H5585   0.950   .     S
C5580  H5586   0.950   .     S
N5581  Fe5613  2.091   .     S
N5582  N397    1.360   1_556 S
N5582  Fe5615  2.139   .     S
H5587  C5590   0.750   .     S
H5587  C5591   0.750   .     S
C5588  C5590   1.360   .     S
C5588  N5594   1.360   .     D
C5588  H5596   0.950   .     S
C5589  C5590   1.360   .     S
C5589  N5595   1.360   .     D
C5589  H5597   0.950   .     S
C5590  C5591   1.500   .     S
C5591  C5593   1.390   .     S
C5592  C5593   1.390   .     D
C5592  H5598   0.950   .     S
C5593  H5599   0.950   .     S
N5594  N5595   1.360   .     S
N5594  Fe6910  2.091   1_545 S
N5595  Fe5616  2.139   .     S
H5600  C5603   0.750   .     S
H5600  C5604   0.750   .     S
C5601  C5603   1.360   .     S
C5601  N5607   1.360   .     D
C5601  H5609   0.950   .     S
C5602  C5603   1.360   .     S
C5602  N5608   1.360   .     D
C5602  H5610   0.950   .     S
C5603  C5604   1.500   .     S
C5604  C5606   1.390   .     S
C5605  C5606   1.390   .     D
C5605  H5611   0.950   .     S
C5606  H5612   0.950   .     S
N5607  N5608   1.360   .     S
N5607  Fe5289  2.091   1_655 S
N5608  Fe5291  2.139   1_655 S
Fe5614 N6000   2.091   .     S
Fe5614 N6026   2.091   .     S
Fe5616 N6812   2.091   1_545 S
Fe5616 N6838   2.091   1_545 S
H5617  C5620   0.750   .     S
H5617  C5621   0.750   .     S
C5618  C5620   1.360   .     S
C5618  N5624   1.360   .     D
C5618  H5626   0.950   .     S
C5619  N5625   1.360   .     D
C5619  H5627   0.950   .     S
C5620  C435    1.360   1_556 S
C5620  C5621   1.500   .     S
C5621  C5623   1.390   .     S
C5621  C503    1.390   1_556 S
C5622  C5623   1.390   .     D
C5622  H5628   0.950   .     S
C5622  C502    1.390   1_556 S
C5623  H5629   0.950   .     S
N5624  N441    1.360   1_556 S
N5624  Fe6156  2.091   .     S
N5625  Fe5722  2.139   .     S
H5630  C5633   0.750   .     S
H5630  C5634   0.750   .     S
C5631  C5633   1.360   .     S
C5631  N5637   1.360   .     D
C5631  H5639   0.950   .     S
C5632  N5638   1.360   .     D
C5632  H5640   0.950   .     S
C5633  C448    1.360   1_556 S
C5633  C5634   1.500   .     S
C5634  C5636   1.390   .     S
C5634  C490    1.390   1_556 S
C5635  C5636   1.390   .     D
C5635  H5641   0.950   .     S
C5635  C489    1.390   1_556 S
C5636  H5642   0.950   .     S
N5637  N454    1.360   1_556 S
N5637  Fe5831  2.091   .     S
N5638  Fe5829  2.139   .     S
H5643  C5646   0.750   .     S
H5643  C5647   0.750   .     S
C5644  C5646   1.360   .     S
C5644  N5650   1.360   .     D
C5644  H5652   0.950   .     S
C5645  C5646   1.360   .     S
C5645  N5651   1.360   .     D
C5645  H5653   0.950   .     S
C5646  C5647   1.500   .     S
C5647  C5649   1.390   .     S
C5647  C5713   1.390   .     S
C5648  C5649   1.390   .     D
C5648  H5654   0.950   .     S
C5648  C5712   1.390   .     S
C5649  H5655   0.950   .     S
N5650  N5651   1.360   .     S
N5650  Fe6156  2.091   .     S
N5651  Fe5722  2.139   .     S
H5656  C5659   0.750   .     S
H5656  C5660   0.750   .     S
C5657  C5659   1.360   .     S
C5657  N5663   1.360   .     D
C5657  H5665   0.950   .     S
C5658  C5659   1.360   .     S
C5658  N5664   1.360   .     D
C5658  H5666   0.950   .     S
C5659  C5660   1.500   .     S
C5660  C5662   1.390   .     S
C5660  C5700   1.390   .     S
C5661  C5662   1.390   .     D
C5661  H5667   0.950   .     S
C5661  C5699   1.390   .     S
C5662  H5668   0.950   .     S
N5663  N5664   1.360   .     S
N5663  Fe5723  2.091   .     S
N5664  Fe5721  2.139   .     S
H5669  C5672   0.750   .     S
H5669  C5673   0.750   .     S
C5670  C5672   1.360   .     S
C5670  N5676   1.360   .     D
C5670  H5678   0.950   .     S
C5671  C488    1.360   1_556 S
C5671  N5677   1.360   .     D
C5671  H5679   0.950   .     S
C5672  C5673   1.500   .     S
C5673  C5675   1.390   .     S
C5674  C5675   1.390   .     D
C5674  H5680   0.950   .     S
C5675  H5681   0.950   .     S
N5677  N492    1.360   1_556 S
N5677  Fe5724  2.139   .     S
H5682  C5685   0.750   .     S
H5682  C5686   0.750   .     S
C5683  C5685   1.360   .     S
C5683  N5689   1.360   .     D
C5683  H5691   0.950   .     S
C5684  C501    1.360   1_556 S
C5684  N5690   1.360   .     D
C5684  H5692   0.950   .     S
C5685  C5686   1.500   .     S
C5686  C5688   1.390   .     S
C5687  C5688   1.390   .     D
C5687  H5693   0.950   .     S
C5688  H5694   0.950   .     S
N5689  Fe5721  2.091   .     S
N5690  N505    1.360   1_556 S
N5690  Fe5723  2.139   .     S
H5695  C5698   0.750   .     S
H5695  C5699   0.750   .     S
C5696  C5698   1.360   .     S
C5696  N5702   1.360   .     D
C5696  H5704   0.950   .     S
C5697  C5698   1.360   .     S
C5697  N5703   1.360   .     D
C5697  H5705   0.950   .     S
C5698  C5699   1.500   .     S
C5699  C5701   1.390   .     S
C5700  C5701   1.390   .     D
C5700  H5706   0.950   .     S
C5701  H5707   0.950   .     S
N5702  N5703   1.360   .     S
N5703  Fe5724  2.139   .     S
H5708  C5711   0.750   .     S
H5708  C5712   0.750   .     S
C5709  C5711   1.360   .     S
C5709  N5715   1.360   .     D
C5709  H5717   0.950   .     S
C5710  C5711   1.360   .     S
C5710  N5716   1.360   .     D
C5710  H5718   0.950   .     S
C5711  C5712   1.500   .     S
C5712  C5714   1.390   .     S
C5713  C5714   1.390   .     D
C5713  H5719   0.950   .     S
C5714  H5720   0.950   .     S
N5715  N5716   1.360   .     S
N5715  Fe5829  2.091   .     S
N5716  Fe5831  2.139   .     S
Fe5721 N6039   2.091   1_455 S
Fe5721 N5962   2.139   1_455 S
Fe5722 N6108   2.091   .     S
Fe5722 N6134   2.091   .     S
Fe5723 N5961   2.091   1_455 S
Fe5723 N6040   2.139   1_455 S
H5725  C5728   0.750   .     S
H5725  C5729   0.750   .     S
C5726  C5728   1.360   .     S
C5726  N5732   1.360   .     D
C5726  H5734   0.950   .     S
C5727  N5733   1.360   .     D
C5727  H5735   0.950   .     S
C5728  C543    1.360   1_556 S
C5728  C5729   1.500   .     S
C5729  C5731   1.390   .     S
C5729  C611    1.390   1_556 S
C5730  C5731   1.390   .     D
C5730  H5736   0.950   .     S
C5730  C610    1.390   1_556 S
C5731  H5737   0.950   .     S
N5732  N549    1.360   1_556 S
N5732  Fe6264  2.091   .     S
N5733  Fe5830  2.139   .     S
H5738  C5741   0.750   .     S
H5738  C5742   0.750   .     S
C5739  C5741   1.360   .     S
C5739  N5745   1.360   .     D
C5739  H5747   0.950   .     S
C5740  N5746   1.360   .     D
C5740  H5748   0.950   .     S
C5741  C556    1.360   1_556 S
C5741  C5742   1.500   .     S
C5742  C5744   1.390   .     S
C5742  C598    1.390   1_556 S
C5743  C5744   1.390   .     D
C5743  H5749   0.950   .     S
C5743  C597    1.390   1_556 S
C5744  H5750   0.950   .     S
N5745  N562    1.360   1_556 S
N5745  Fe5939  2.091   .     S
N5746  Fe5937  2.139   .     S
H5751  C5754   0.750   .     S
H5751  C5755   0.750   .     S
C5752  C5754   1.360   .     S
C5752  N5758   1.360   .     D
C5752  H5760   0.950   .     S
C5753  C5754   1.360   .     S
C5753  N5759   1.360   .     D
C5753  H5761   0.950   .     S
C5754  C5755   1.500   .     S
C5755  C5757   1.390   .     S
C5755  C5821   1.390   .     S
C5756  C5757   1.390   .     D
C5756  H5762   0.950   .     S
C5756  C5820   1.390   .     S
C5757  H5763   0.950   .     S
N5758  N5759   1.360   .     S
N5758  Fe6264  2.091   .     S
N5759  Fe5830  2.139   .     S
H5764  C5767   0.750   .     S
H5764  C5768   0.750   .     S
C5765  C5767   1.360   .     S
C5765  N5771   1.360   .     D
C5765  H5773   0.950   .     S
C5766  C5767   1.360   .     S
C5766  N5772   1.360   .     D
C5766  H5774   0.950   .     S
C5767  C5768   1.500   .     S
C5768  C5770   1.390   .     S
C5768  C5808   1.390   .     S
C5769  C5770   1.390   .     D
C5769  H5775   0.950   .     S
C5769  C5807   1.390   .     S
C5770  H5776   0.950   .     S
N5771  N5772   1.360   .     S
N5771  Fe5831  2.091   .     S
N5772  Fe5829  2.139   .     S
H5777  C5780   0.750   .     S
H5777  C5781   0.750   .     S
C5778  C5780   1.360   .     S
C5778  N5784   1.360   .     D
C5778  H5786   0.950   .     S
C5779  C596    1.360   1_556 S
C5779  N5785   1.360   .     D
C5779  H5787   0.950   .     S
C5780  C5781   1.500   .     S
C5781  C5783   1.390   .     S
C5782  C5783   1.390   .     D
C5782  H5788   0.950   .     S
C5783  H5789   0.950   .     S
N5785  N600    1.360   1_556 S
N5785  Fe5832  2.139   .     S
H5790  C5793   0.750   .     S
H5790  C5794   0.750   .     S
C5791  C5793   1.360   .     S
C5791  N5797   1.360   .     D
C5791  H5799   0.950   .     S
C5792  C609    1.360   1_556 S
C5792  N5798   1.360   .     D
C5792  H5800   0.950   .     S
C5793  C5794   1.500   .     S
C5794  C5796   1.390   .     S
C5795  C5796   1.390   .     D
C5795  H5801   0.950   .     S
C5796  H5802   0.950   .     S
N5797  Fe5829  2.091   .     S
N5798  N613    1.360   1_556 S
N5798  Fe5831  2.139   .     S
H5803  C5806   0.750   .     S
H5803  C5807   0.750   .     S
C5804  C5806   1.360   .     S
C5804  N5810   1.360   .     D
C5804  H5812   0.950   .     S
C5805  C5806   1.360   .     S
C5805  N5811   1.360   .     D
C5805  H5813   0.950   .     S
C5806  C5807   1.500   .     S
C5807  C5809   1.390   .     S
C5808  C5809   1.390   .     D
C5808  H5814   0.950   .     S
C5809  H5815   0.950   .     S
N5810  N5811   1.360   .     S
N5811  Fe5832  2.139   .     S
H5816  C5819   0.750   .     S
H5816  C5820   0.750   .     S
C5817  C5819   1.360   .     S
C5817  N5823   1.360   .     D
C5817  H5825   0.950   .     S
C5818  C5819   1.360   .     S
C5818  N5824   1.360   .     D
C5818  H5826   0.950   .     S
C5819  C5820   1.500   .     S
C5820  C5822   1.390   .     S
C5821  C5822   1.390   .     D
C5821  H5827   0.950   .     S
C5822  H5828   0.950   .     S
N5823  N5824   1.360   .     S
N5823  Fe5937  2.091   .     S
N5824  Fe5939  2.139   .     S
Fe5830 N6216   2.091   .     S
Fe5830 N6242   2.091   .     S
H5833  C5836   0.750   .     S
H5833  C5837   0.750   .     S
C5834  C5836   1.360   .     S
C5834  N5840   1.360   .     D
C5834  H5842   0.950   .     S
C5835  N5841   1.360   .     D
C5835  H5843   0.950   .     S
C5836  C651    1.360   1_556 S
C5836  C5837   1.500   .     S
C5837  C5839   1.390   .     S
C5837  C719    1.390   1_556 S
C5838  C5839   1.390   .     D
C5838  H5844   0.950   .     S
C5838  C718    1.390   1_556 S
C5839  H5845   0.950   .     S
N5840  N657    1.360   1_556 S
N5840  Fe6372  2.091   .     S
N5841  Fe5938  2.139   .     S
H5846  C5849   0.750   .     S
H5846  C5850   0.750   .     S
C5847  C5849   1.360   .     S
C5847  N5853   1.360   .     D
C5847  H5855   0.950   .     S
C5848  N5854   1.360   .     D
C5848  H5856   0.950   .     S
C5849  C664    1.360   1_556 S
C5849  C5850   1.500   .     S
C5850  C5852   1.390   .     S
C5850  C706    1.390   1_556 S
C5851  C5852   1.390   .     D
C5851  H5857   0.950   .     S
C5851  C705    1.390   1_556 S
C5852  H5858   0.950   .     S
N5853  N670    1.360   1_556 S
N5853  Fe6047  2.091   .     S
N5854  Fe6045  2.139   .     S
H5859  C5862   0.750   .     S
H5859  C5863   0.750   .     S
C5860  C5862   1.360   .     S
C5860  N5866   1.360   .     D
C5860  H5868   0.950   .     S
C5861  C5862   1.360   .     S
C5861  N5867   1.360   .     D
C5861  H5869   0.950   .     S
C5862  C5863   1.500   .     S
C5863  C5865   1.390   .     S
C5863  C5929   1.390   .     S
C5864  C5865   1.390   .     D
C5864  H5870   0.950   .     S
C5864  C5928   1.390   .     S
C5865  H5871   0.950   .     S
N5866  N5867   1.360   .     S
N5866  Fe6372  2.091   .     S
N5867  Fe5938  2.139   .     S
H5872  C5875   0.750   .     S
H5872  C5876   0.750   .     S
C5873  C5875   1.360   .     S
C5873  N5879   1.360   .     D
C5873  H5881   0.950   .     S
C5874  C5875   1.360   .     S
C5874  N5880   1.360   .     D
C5874  H5882   0.950   .     S
C5875  C5876   1.500   .     S
C5876  C5878   1.390   .     S
C5876  C5916   1.390   .     S
C5877  C5878   1.390   .     D
C5877  H5883   0.950   .     S
C5877  C5915   1.390   .     S
C5878  H5884   0.950   .     S
N5879  N5880   1.360   .     S
N5879  Fe5939  2.091   .     S
N5880  Fe5937  2.139   .     S
H5885  C5888   0.750   .     S
H5885  C5889   0.750   .     S
C5886  C5888   1.360   .     S
C5886  N5892   1.360   .     D
C5886  H5894   0.950   .     S
C5887  C704    1.360   1_556 S
C5887  N5893   1.360   .     D
C5887  H5895   0.950   .     S
C5888  C5889   1.500   .     S
C5889  C5891   1.390   .     S
C5890  C5891   1.390   .     D
C5890  H5896   0.950   .     S
C5891  H5897   0.950   .     S
N5893  N708    1.360   1_556 S
N5893  Fe5940  2.139   .     S
H5898  C5901   0.750   .     S
H5898  C5902   0.750   .     S
C5899  C5901   1.360   .     S
C5899  N5905   1.360   .     D
C5899  H5907   0.950   .     S
C5900  C717    1.360   1_556 S
C5900  N5906   1.360   .     D
C5900  H5908   0.950   .     S
C5901  C5902   1.500   .     S
C5902  C5904   1.390   .     S
C5903  C5904   1.390   .     D
C5903  H5909   0.950   .     S
C5904  H5910   0.950   .     S
N5905  Fe5937  2.091   .     S
N5906  N721    1.360   1_556 S
N5906  Fe5939  2.139   .     S
H5911  C5914   0.750   .     S
H5911  C5915   0.750   .     S
C5912  C5914   1.360   .     S
C5912  N5918   1.360   .     D
C5912  H5920   0.950   .     S
C5913  C5914   1.360   .     S
C5913  N5919   1.360   .     D
C5913  H5921   0.950   .     S
C5914  C5915   1.500   .     S
C5915  C5917   1.390   .     S
C5916  C5917   1.390   .     D
C5916  H5922   0.950   .     S
C5917  H5923   0.950   .     S
N5918  N5919   1.360   .     S
N5919  Fe5940  2.139   .     S
H5924  C5927   0.750   .     S
H5924  C5928   0.750   .     S
C5925  C5927   1.360   .     S
C5925  N5931   1.360   .     D
C5925  H5933   0.950   .     S
C5926  C5927   1.360   .     S
C5926  N5932   1.360   .     D
C5926  H5934   0.950   .     S
C5927  C5928   1.500   .     S
C5928  C5930   1.390   .     S
C5929  C5930   1.390   .     D
C5929  H5935   0.950   .     S
C5930  H5936   0.950   .     S
N5931  N5932   1.360   .     S
N5931  Fe6045  2.091   .     S
N5932  Fe6047  2.139   .     S
Fe5938 N6324   2.091   .     S
Fe5938 N6350   2.091   .     S
H5941  C5944   0.750   .     S
H5941  C5945   0.750   .     S
C5942  C5944   1.360   .     S
C5942  N5948   1.360   .     D
C5942  H5950   0.950   .     S
C5943  N5949   1.360   .     D
C5943  H5951   0.950   .     S
C5944  C759    1.360   1_556 S
C5944  C5945   1.500   .     S
C5945  C5947   1.390   .     S
C5945  C827    1.390   1_556 S
C5946  C5947   1.390   .     D
C5946  H5952   0.950   .     S
C5946  C826    1.390   1_556 S
C5947  H5953   0.950   .     S
N5948  N765    1.360   1_556 S
N5948  Fe6480  2.091   .     S
N5949  Fe6046  2.139   .     S
H5954  C5957   0.750   .     S
H5954  C5958   0.750   .     S
C5955  C5957   1.360   .     S
C5955  N5961   1.360   .     D
C5955  H5963   0.950   .     S
C5956  N5962   1.360   .     D
C5956  H5964   0.950   .     S
C5957  C772    1.360   1_556 S
C5957  C5958   1.500   .     S
C5958  C5960   1.390   .     S
C5958  C814    1.390   1_556 S
C5959  C5960   1.390   .     D
C5959  H5965   0.950   .     S
C5959  C813    1.390   1_556 S
C5960  H5966   0.950   .     S
N5961  N778    1.360   1_556 S
N5961  Fe5723  2.091   1_655 S
N5962  Fe5721  2.139   1_655 S
H5967  C5970   0.750   .     S
H5967  C5971   0.750   .     S
C5968  C5970   1.360   .     S
C5968  N5974   1.360   .     D
C5968  H5976   0.950   .     S
C5969  C5970   1.360   .     S
C5969  N5975   1.360   .     D
C5969  H5977   0.950   .     S
C5970  C5971   1.500   .     S
C5971  C5973   1.390   .     S
C5971  C6037   1.390   .     S
C5972  C5973   1.390   .     D
C5972  H5978   0.950   .     S
C5972  C6036   1.390   .     S
C5973  H5979   0.950   .     S
N5974  N5975   1.360   .     S
N5974  Fe6480  2.091   .     S
N5975  Fe6046  2.139   .     S
H5980  C5983   0.750   .     S
H5980  C5984   0.750   .     S
C5981  C5983   1.360   .     S
C5981  N5987   1.360   .     D
C5981  H5989   0.950   .     S
C5982  C5983   1.360   .     S
C5982  N5988   1.360   .     D
C5982  H5990   0.950   .     S
C5983  C5984   1.500   .     S
C5984  C5986   1.390   .     S
C5984  C6024   1.390   .     S
C5985  C5986   1.390   .     D
C5985  H5991   0.950   .     S
C5985  C6023   1.390   .     S
C5986  H5992   0.950   .     S
N5987  N5988   1.360   .     S
N5987  Fe6047  2.091   .     S
N5988  Fe6045  2.139   .     S
H5993  C5996   0.750   .     S
H5993  C5997   0.750   .     S
C5994  C5996   1.360   .     S
C5994  N6000   1.360   .     D
C5994  H6002   0.950   .     S
C5995  C812    1.360   1_556 S
C5995  N6001   1.360   .     D
C5995  H6003   0.950   .     S
C5996  C5997   1.500   .     S
C5997  C5999   1.390   .     S
C5998  C5999   1.390   .     D
C5998  H6004   0.950   .     S
C5999  H6005   0.950   .     S
N6001  N816    1.360   1_556 S
N6001  Fe6048  2.139   .     S
H6006  C6009   0.750   .     S
H6006  C6010   0.750   .     S
C6007  C6009   1.360   .     S
C6007  N6013   1.360   .     D
C6007  H6015   0.950   .     S
C6008  C825    1.360   1_556 S
C6008  N6014   1.360   .     D
C6008  H6016   0.950   .     S
C6009  C6010   1.500   .     S
C6010  C6012   1.390   .     S
C6011  C6012   1.390   .     D
C6011  H6017   0.950   .     S
C6012  H6018   0.950   .     S
N6013  Fe6045  2.091   .     S
N6014  N829    1.360   1_556 S
N6014  Fe6047  2.139   .     S
H6019  C6022   0.750   .     S
H6019  C6023   0.750   .     S
C6020  C6022   1.360   .     S
C6020  N6026   1.360   .     D
C6020  H6028   0.950   .     S
C6021  C6022   1.360   .     S
C6021  N6027   1.360   .     D
C6021  H6029   0.950   .     S
C6022  C6023   1.500   .     S
C6023  C6025   1.390   .     S
C6024  C6025   1.390   .     D
C6024  H6030   0.950   .     S
C6025  H6031   0.950   .     S
N6026  N6027   1.360   .     S
N6027  Fe6048  2.139   .     S
H6032  C6035   0.750   .     S
H6032  C6036   0.750   .     S
C6033  C6035   1.360   .     S
C6033  N6039   1.360   .     D
C6033  H6041   0.950   .     S
C6034  C6035   1.360   .     S
C6034  N6040   1.360   .     D
C6034  H6042   0.950   .     S
C6035  C6036   1.500   .     S
C6036  C6038   1.390   .     S
C6037  C6038   1.390   .     D
C6037  H6043   0.950   .     S
C6038  H6044   0.950   .     S
N6039  N6040   1.360   .     S
N6039  Fe5721  2.091   1_655 S
N6040  Fe5723  2.139   1_655 S
Fe6046 N6432   2.091   .     S
Fe6046 N6458   2.091   .     S
H6049  C6052   0.750   .     S
H6049  C6053   0.750   .     S
C6050  C6052   1.360   .     S
C6050  N6056   1.360   .     D
C6050  H6058   0.950   .     S
C6051  N6057   1.360   .     D
C6051  H6059   0.950   .     S
C6052  C867    1.360   1_556 S
C6052  C6053   1.500   .     S
C6053  C6055   1.390   .     S
C6053  C935    1.390   1_556 S
C6054  C6055   1.390   .     D
C6054  H6060   0.950   .     S
C6054  C934    1.390   1_556 S
C6055  H6061   0.950   .     S
N6056  N873    1.360   1_556 S
N6056  Fe6588  2.091   .     S
N6057  Fe6154  2.139   .     S
H6062  C6065   0.750   .     S
H6062  C6066   0.750   .     S
C6063  C6065   1.360   .     S
C6063  N6069   1.360   .     D
C6063  H6071   0.950   .     S
C6064  N6070   1.360   .     D
C6064  H6072   0.950   .     S
C6065  C880    1.360   1_556 S
C6065  C6066   1.500   .     S
C6066  C6068   1.390   .     S
C6066  C922    1.390   1_556 S
C6067  C6068   1.390   .     D
C6067  H6073   0.950   .     S
C6067  C921    1.390   1_556 S
C6068  H6074   0.950   .     S
N6069  N886    1.360   1_556 S
N6069  Fe6263  2.091   .     S
N6070  Fe6261  2.139   .     S
H6075  C6078   0.750   .     S
H6075  C6079   0.750   .     S
C6076  C6078   1.360   .     S
C6076  N6082   1.360   .     D
C6076  H6084   0.950   .     S
C6077  C6078   1.360   .     S
C6077  N6083   1.360   .     D
C6077  H6085   0.950   .     S
C6078  C6079   1.500   .     S
C6079  C6081   1.390   .     S
C6079  C6145   1.390   .     S
C6080  C6081   1.390   .     D
C6080  H6086   0.950   .     S
C6080  C6144   1.390   .     S
C6081  H6087   0.950   .     S
N6082  N6083   1.360   .     S
N6082  Fe6588  2.091   .     S
N6083  Fe6154  2.139   .     S
H6088  C6091   0.750   .     S
H6088  C6092   0.750   .     S
C6089  C6091   1.360   .     S
C6089  N6095   1.360   .     D
C6089  H6097   0.950   .     S
C6090  C6091   1.360   .     S
C6090  N6096   1.360   .     D
C6090  H6098   0.950   .     S
C6091  C6092   1.500   .     S
C6092  C6094   1.390   .     S
C6092  C6132   1.390   .     S
C6093  C6094   1.390   .     D
C6093  H6099   0.950   .     S
C6093  C6131   1.390   .     S
C6094  H6100   0.950   .     S
N6095  N6096   1.360   .     S
N6095  Fe6155  2.091   .     S
N6096  Fe6153  2.139   .     S
H6101  C6104   0.750   .     S
H6101  C6105   0.750   .     S
C6102  C6104   1.360   .     S
C6102  N6108   1.360   .     D
C6102  H6110   0.950   .     S
C6103  C920    1.360   1_556 S
C6103  N6109   1.360   .     D
C6103  H6111   0.950   .     S
C6104  C6105   1.500   .     S
C6105  C6107   1.390   .     S
C6106  C6107   1.390   .     D
C6106  H6112   0.950   .     S
C6107  H6113   0.950   .     S
N6109  N924    1.360   1_556 S
N6109  Fe6156  2.139   .     S
H6114  C6117   0.750   .     S
H6114  C6118   0.750   .     S
C6115  C6117   1.360   .     S
C6115  N6121   1.360   .     D
C6115  H6123   0.950   .     S
C6116  C933    1.360   1_556 S
C6116  N6122   1.360   .     D
C6116  H6124   0.950   .     S
C6117  C6118   1.500   .     S
C6118  C6120   1.390   .     S
C6119  C6120   1.390   .     D
C6119  H6125   0.950   .     S
C6120  H6126   0.950   .     S
N6121  Fe6153  2.091   .     S
N6122  N937    1.360   1_556 S
N6122  Fe6155  2.139   .     S
H6127  C6130   0.750   .     S
H6127  C6131   0.750   .     S
C6128  C6130   1.360   .     S
C6128  N6134   1.360   .     D
C6128  H6136   0.950   .     S
C6129  C6130   1.360   .     S
C6129  N6135   1.360   .     D
C6129  H6137   0.950   .     S
C6130  C6131   1.500   .     S
C6131  C6133   1.390   .     S
C6132  C6133   1.390   .     D
C6132  H6138   0.950   .     S
C6133  H6139   0.950   .     S
N6134  N6135   1.360   .     S
N6135  Fe6156  2.139   .     S
H6140  C6143   0.750   .     S
H6140  C6144   0.750   .     S
C6141  C6143   1.360   .     S
C6141  N6147   1.360   .     D
C6141  H6149   0.950   .     S
C6142  C6143   1.360   .     S
C6142  N6148   1.360   .     D
C6142  H6150   0.950   .     S
C6143  C6144   1.500   .     S
C6144  C6146   1.390   .     S
C6145  C6146   1.390   .     D
C6145  H6151   0.950   .     S
C6146  H6152   0.950   .     S
N6147  N6148   1.360   .     S
N6147  Fe6261  2.091   .     S
N6148  Fe6263  2.139   .     S
Fe6153 N6471   2.091   1_455 S
Fe6153 N6394   2.139   1_455 S
Fe6154 N6540   2.091   .     S
Fe6154 N6566   2.091   .     S
Fe6155 N6393   2.091   1_455 S
Fe6155 N6472   2.139   1_455 S
H6157  C6160   0.750   .     S
H6157  C6161   0.750   .     S
C6158  C6160   1.360   .     S
C6158  N6164   1.360   .     D
C6158  H6166   0.950   .     S
C6159  N6165   1.360   .     D
C6159  H6167   0.950   .     S
C6160  C975    1.360   1_556 S
C6160  C6161   1.500   .     S
C6161  C6163   1.390   .     S
C6161  C1043   1.390   1_556 S
C6162  C6163   1.390   .     D
C6162  H6168   0.950   .     S
C6162  C1042   1.390   1_556 S
C6163  H6169   0.950   .     S
N6164  N981    1.360   1_556 S
N6164  Fe6696  2.091   .     S
N6165  Fe6262  2.139   .     S
H6170  C6173   0.750   .     S
H6170  C6174   0.750   .     S
C6171  C6173   1.360   .     S
C6171  N6177   1.360   .     D
C6171  H6179   0.950   .     S
C6172  N6178   1.360   .     D
C6172  H6180   0.950   .     S
C6173  C988    1.360   1_556 S
C6173  C6174   1.500   .     S
C6174  C6176   1.390   .     S
C6174  C1030   1.390   1_556 S
C6175  C6176   1.390   .     D
C6175  H6181   0.950   .     S
C6175  C1029   1.390   1_556 S
C6176  H6182   0.950   .     S
N6177  N994    1.360   1_556 S
N6177  Fe6371  2.091   .     S
N6178  Fe6369  2.139   .     S
H6183  C6186   0.750   .     S
H6183  C6187   0.750   .     S
C6184  C6186   1.360   .     S
C6184  N6190   1.360   .     D
C6184  H6192   0.950   .     S
C6185  C6186   1.360   .     S
C6185  N6191   1.360   .     D
C6185  H6193   0.950   .     S
C6186  C6187   1.500   .     S
C6187  C6189   1.390   .     S
C6187  C6253   1.390   .     S
C6188  C6189   1.390   .     D
C6188  H6194   0.950   .     S
C6188  C6252   1.390   .     S
C6189  H6195   0.950   .     S
N6190  N6191   1.360   .     S
N6190  Fe6696  2.091   .     S
N6191  Fe6262  2.139   .     S
H6196  C6199   0.750   .     S
H6196  C6200   0.750   .     S
C6197  C6199   1.360   .     S
C6197  N6203   1.360   .     D
C6197  H6205   0.950   .     S
C6198  C6199   1.360   .     S
C6198  N6204   1.360   .     D
C6198  H6206   0.950   .     S
C6199  C6200   1.500   .     S
C6200  C6202   1.390   .     S
C6200  C6240   1.390   .     S
C6201  C6202   1.390   .     D
C6201  H6207   0.950   .     S
C6201  C6239   1.390   .     S
C6202  H6208   0.950   .     S
N6203  N6204   1.360   .     S
N6203  Fe6263  2.091   .     S
N6204  Fe6261  2.139   .     S
H6209  C6212   0.750   .     S
H6209  C6213   0.750   .     S
C6210  C6212   1.360   .     S
C6210  N6216   1.360   .     D
C6210  H6218   0.950   .     S
C6211  C1028   1.360   1_556 S
C6211  N6217   1.360   .     D
C6211  H6219   0.950   .     S
C6212  C6213   1.500   .     S
C6213  C6215   1.390   .     S
C6214  C6215   1.390   .     D
C6214  H6220   0.950   .     S
C6215  H6221   0.950   .     S
N6217  N1032   1.360   1_556 S
N6217  Fe6264  2.139   .     S
H6222  C6225   0.750   .     S
H6222  C6226   0.750   .     S
C6223  C6225   1.360   .     S
C6223  N6229   1.360   .     D
C6223  H6231   0.950   .     S
C6224  C1041   1.360   1_556 S
C6224  N6230   1.360   .     D
C6224  H6232   0.950   .     S
C6225  C6226   1.500   .     S
C6226  C6228   1.390   .     S
C6227  C6228   1.390   .     D
C6227  H6233   0.950   .     S
C6228  H6234   0.950   .     S
N6229  Fe6261  2.091   .     S
N6230  N1045   1.360   1_556 S
N6230  Fe6263  2.139   .     S
H6235  C6238   0.750   .     S
H6235  C6239   0.750   .     S
C6236  C6238   1.360   .     S
C6236  N6242   1.360   .     D
C6236  H6244   0.950   .     S
C6237  C6238   1.360   .     S
C6237  N6243   1.360   .     D
C6237  H6245   0.950   .     S
C6238  C6239   1.500   .     S
C6239  C6241   1.390   .     S
C6240  C6241   1.390   .     D
C6240  H6246   0.950   .     S
C6241  H6247   0.950   .     S
N6242  N6243   1.360   .     S
N6243  Fe6264  2.139   .     S
H6248  C6251   0.750   .     S
H6248  C6252   0.750   .     S
C6249  C6251   1.360   .     S
C6249  N6255   1.360   .     D
C6249  H6257   0.950   .     S
C6250  C6251   1.360   .     S
C6250  N6256   1.360   .     D
C6250  H6258   0.950   .     S
C6251  C6252   1.500   .     S
C6252  C6254   1.390   .     S
C6253  C6254   1.390   .     D
C6253  H6259   0.950   .     S
C6254  H6260   0.950   .     S
N6255  N6256   1.360   .     S
N6255  Fe6369  2.091   .     S
N6256  Fe6371  2.139   .     S
Fe6262 N6648   2.091   .     S
Fe6262 N6674   2.091   .     S
H6265  C6268   0.750   .     S
H6265  C6269   0.750   .     S
C6266  C6268   1.360   .     S
C6266  N6272   1.360   .     D
C6266  H6274   0.950   .     S
C6267  N6273   1.360   .     D
C6267  H6275   0.950   .     S
C6268  C1083   1.360   1_556 S
C6268  C6269   1.500   .     S
C6269  C6271   1.390   .     S
C6269  C1151   1.390   1_556 S
C6270  C6271   1.390   .     D
C6270  H6276   0.950   .     S
C6270  C1150   1.390   1_556 S
C6271  H6277   0.950   .     S
N6272  N1089   1.360   1_556 S
N6272  Fe6804  2.091   .     S
N6273  Fe6370  2.139   .     S
H6278  C6281   0.750   .     S
H6278  C6282   0.750   .     S
C6279  C6281   1.360   .     S
C6279  N6285   1.360   .     D
C6279  H6287   0.950   .     S
C6280  N6286   1.360   .     D
C6280  H6288   0.950   .     S
C6281  C1096   1.360   1_556 S
C6281  C6282   1.500   .     S
C6282  C6284   1.390   .     S
C6282  C1138   1.390   1_556 S
C6283  C6284   1.390   .     D
C6283  H6289   0.950   .     S
C6283  C1137   1.390   1_556 S
C6284  H6290   0.950   .     S
N6285  N1102   1.360   1_556 S
N6285  Fe6479  2.091   .     S
N6286  Fe6477  2.139   .     S
H6291  C6294   0.750   .     S
H6291  C6295   0.750   .     S
C6292  C6294   1.360   .     S
C6292  N6298   1.360   .     D
C6292  H6300   0.950   .     S
C6293  C6294   1.360   .     S
C6293  N6299   1.360   .     D
C6293  H6301   0.950   .     S
C6294  C6295   1.500   .     S
C6295  C6297   1.390   .     S
C6295  C6361   1.390   .     S
C6296  C6297   1.390   .     D
C6296  H6302   0.950   .     S
C6296  C6360   1.390   .     S
C6297  H6303   0.950   .     S
N6298  N6299   1.360   .     S
N6298  Fe6804  2.091   .     S
N6299  Fe6370  2.139   .     S
H6304  C6307   0.750   .     S
H6304  C6308   0.750   .     S
C6305  C6307   1.360   .     S
C6305  N6311   1.360   .     D
C6305  H6313   0.950   .     S
C6306  C6307   1.360   .     S
C6306  N6312   1.360   .     D
C6306  H6314   0.950   .     S
C6307  C6308   1.500   .     S
C6308  C6310   1.390   .     S
C6308  C6348   1.390   .     S
C6309  C6310   1.390   .     D
C6309  H6315   0.950   .     S
C6309  C6347   1.390   .     S
C6310  H6316   0.950   .     S
N6311  N6312   1.360   .     S
N6311  Fe6371  2.091   .     S
N6312  Fe6369  2.139   .     S
H6317  C6320   0.750   .     S
H6317  C6321   0.750   .     S
C6318  C6320   1.360   .     S
C6318  N6324   1.360   .     D
C6318  H6326   0.950   .     S
C6319  C1136   1.360   1_556 S
C6319  N6325   1.360   .     D
C6319  H6327   0.950   .     S
C6320  C6321   1.500   .     S
C6321  C6323   1.390   .     S
C6322  C6323   1.390   .     D
C6322  H6328   0.950   .     S
C6323  H6329   0.950   .     S
N6325  N1140   1.360   1_556 S
N6325  Fe6372  2.139   .     S
H6330  C6333   0.750   .     S
H6330  C6334   0.750   .     S
C6331  C6333   1.360   .     S
C6331  N6337   1.360   .     D
C6331  H6339   0.950   .     S
C6332  C1149   1.360   1_556 S
C6332  N6338   1.360   .     D
C6332  H6340   0.950   .     S
C6333  C6334   1.500   .     S
C6334  C6336   1.390   .     S
C6335  C6336   1.390   .     D
C6335  H6341   0.950   .     S
C6336  H6342   0.950   .     S
N6337  Fe6369  2.091   .     S
N6338  N1153   1.360   1_556 S
N6338  Fe6371  2.139   .     S
H6343  C6346   0.750   .     S
H6343  C6347   0.750   .     S
C6344  C6346   1.360   .     S
C6344  N6350   1.360   .     D
C6344  H6352   0.950   .     S
C6345  C6346   1.360   .     S
C6345  N6351   1.360   .     D
C6345  H6353   0.950   .     S
C6346  C6347   1.500   .     S
C6347  C6349   1.390   .     S
C6348  C6349   1.390   .     D
C6348  H6354   0.950   .     S
C6349  H6355   0.950   .     S
N6350  N6351   1.360   .     S
N6351  Fe6372  2.139   .     S
H6356  C6359   0.750   .     S
H6356  C6360   0.750   .     S
C6357  C6359   1.360   .     S
C6357  N6363   1.360   .     D
C6357  H6365   0.950   .     S
C6358  C6359   1.360   .     S
C6358  N6364   1.360   .     D
C6358  H6366   0.950   .     S
C6359  C6360   1.500   .     S
C6360  C6362   1.390   .     S
C6361  C6362   1.390   .     D
C6361  H6367   0.950   .     S
C6362  H6368   0.950   .     S
N6363  N6364   1.360   .     S
N6363  Fe6477  2.091   .     S
N6364  Fe6479  2.139   .     S
Fe6370 N6756   2.091   .     S
Fe6370 N6782   2.091   .     S
H6373  C6376   0.750   .     S
H6373  C6377   0.750   .     S
C6374  C6376   1.360   .     S
C6374  N6380   1.360   .     D
C6374  H6382   0.950   .     S
C6375  N6381   1.360   .     D
C6375  H6383   0.950   .     S
C6376  C1191   1.360   1_556 S
C6376  C6377   1.500   .     S
C6377  C6379   1.390   .     S
C6377  C1259   1.390   1_556 S
C6378  C6379   1.390   .     D
C6378  H6384   0.950   .     S
C6378  C1258   1.390   1_556 S
C6379  H6385   0.950   .     S
N6380  N1197   1.360   1_556 S
N6380  Fe6912  2.091   .     S
N6381  Fe6478  2.139   .     S
H6386  C6389   0.750   .     S
H6386  C6390   0.750   .     S
C6387  C6389   1.360   .     S
C6387  N6393   1.360   .     D
C6387  H6395   0.950   .     S
C6388  N6394   1.360   .     D
C6388  H6396   0.950   .     S
C6389  C1204   1.360   1_556 S
C6389  C6390   1.500   .     S
C6390  C6392   1.390   .     S
C6390  C1246   1.390   1_556 S
C6391  C6392   1.390   .     D
C6391  H6397   0.950   .     S
C6391  C1245   1.390   1_556 S
C6392  H6398   0.950   .     S
N6393  N1210   1.360   1_556 S
N6393  Fe6155  2.091   1_655 S
N6394  Fe6153  2.139   1_655 S
H6399  C6402   0.750   .     S
H6399  C6403   0.750   .     S
C6400  C6402   1.360   .     S
C6400  N6406   1.360   .     D
C6400  H6408   0.950   .     S
C6401  C6402   1.360   .     S
C6401  N6407   1.360   .     D
C6401  H6409   0.950   .     S
C6402  C6403   1.500   .     S
C6403  C6405   1.390   .     S
C6403  C6469   1.390   .     S
C6404  C6405   1.390   .     D
C6404  H6410   0.950   .     S
C6404  C6468   1.390   .     S
C6405  H6411   0.950   .     S
N6406  N6407   1.360   .     S
N6406  Fe6912  2.091   .     S
N6407  Fe6478  2.139   .     S
H6412  C6415   0.750   .     S
H6412  C6416   0.750   .     S
C6413  C6415   1.360   .     S
C6413  N6419   1.360   .     D
C6413  H6421   0.950   .     S
C6414  C6415   1.360   .     S
C6414  N6420   1.360   .     D
C6414  H6422   0.950   .     S
C6415  C6416   1.500   .     S
C6416  C6418   1.390   .     S
C6416  C6456   1.390   .     S
C6417  C6418   1.390   .     D
C6417  H6423   0.950   .     S
C6417  C6455   1.390   .     S
C6418  H6424   0.950   .     S
N6419  N6420   1.360   .     S
N6419  Fe6479  2.091   .     S
N6420  Fe6477  2.139   .     S
H6425  C6428   0.750   .     S
H6425  C6429   0.750   .     S
C6426  C6428   1.360   .     S
C6426  N6432   1.360   .     D
C6426  H6434   0.950   .     S
C6427  C1244   1.360   1_556 S
C6427  N6433   1.360   .     D
C6427  H6435   0.950   .     S
C6428  C6429   1.500   .     S
C6429  C6431   1.390   .     S
C6430  C6431   1.390   .     D
C6430  H6436   0.950   .     S
C6431  H6437   0.950   .     S
N6433  N1248   1.360   1_556 S
N6433  Fe6480  2.139   .     S
H6438  C6441   0.750   .     S
H6438  C6442   0.750   .     S
C6439  C6441   1.360   .     S
C6439  N6445   1.360   .     D
C6439  H6447   0.950   .     S
C6440  C1257   1.360   1_556 S
C6440  N6446   1.360   .     D
C6440  H6448   0.950   .     S
C6441  C6442   1.500   .     S
C6442  C6444   1.390   .     S
C6443  C6444   1.390   .     D
C6443  H6449   0.950   .     S
C6444  H6450   0.950   .     S
N6445  Fe6477  2.091   .     S
N6446  N1261   1.360   1_556 S
N6446  Fe6479  2.139   .     S
H6451  C6454   0.750   .     S
H6451  C6455   0.750   .     S
C6452  C6454   1.360   .     S
C6452  N6458   1.360   .     D
C6452  H6460   0.950   .     S
C6453  C6454   1.360   .     S
C6453  N6459   1.360   .     D
C6453  H6461   0.950   .     S
C6454  C6455   1.500   .     S
C6455  C6457   1.390   .     S
C6456  C6457   1.390   .     D
C6456  H6462   0.950   .     S
C6457  H6463   0.950   .     S
N6458  N6459   1.360   .     S
N6459  Fe6480  2.139   .     S
H6464  C6467   0.750   .     S
H6464  C6468   0.750   .     S
C6465  C6467   1.360   .     S
C6465  N6471   1.360   .     D
C6465  H6473   0.950   .     S
C6466  C6467   1.360   .     S
C6466  N6472   1.360   .     D
C6466  H6474   0.950   .     S
C6467  C6468   1.500   .     S
C6468  C6470   1.390   .     S
C6469  C6470   1.390   .     D
C6469  H6475   0.950   .     S
C6470  H6476   0.950   .     S
N6471  N6472   1.360   .     S
N6471  Fe6153  2.091   1_655 S
N6472  Fe6155  2.139   1_655 S
Fe6478 N6864   2.091   .     S
Fe6478 N6890   2.091   .     S
H6481  C6484   0.750   .     S
H6481  C6485   0.750   .     S
C6482  C6484   1.360   .     S
C6482  N6488   1.360   .     D
C6482  H6490   0.950   .     S
C6483  N6489   1.360   .     D
C6483  H6491   0.950   .     S
C6484  C1299   1.360   1_556 S
C6484  C6485   1.500   .     S
C6485  C6487   1.390   .     S
C6485  C1367   1.390   1_556 S
C6486  C6487   1.390   .     D
C6486  H6492   0.950   .     S
C6486  C1366   1.390   1_556 S
C6487  H6493   0.950   .     S
N6488  N1305   1.360   1_556 S
N6488  Fe5292  2.091   1_565 S
N6489  Fe6586  2.139   .     S
H6494  C6497   0.750   .     S
H6494  C6498   0.750   .     S
C6495  C6497   1.360   .     S
C6495  N6501   1.360   .     D
C6495  H6503   0.950   .     S
C6496  N6502   1.360   .     D
C6496  H6504   0.950   .     S
C6497  C1312   1.360   1_556 S
C6497  C6498   1.500   .     S
C6498  C6500   1.390   .     S
C6498  C1354   1.390   1_556 S
C6499  C6500   1.390   .     D
C6499  H6505   0.950   .     S
C6499  C1353   1.390   1_556 S
C6500  H6506   0.950   .     S
N6501  N1318   1.360   1_556 S
N6501  Fe6695  2.091   .     S
N6502  Fe6693  2.139   .     S
H6507  C6510   0.750   .     S
H6507  C6511   0.750   .     S
C6508  C6510   1.360   .     S
C6508  N6514   1.360   .     D
C6508  H6516   0.950   .     S
C6509  C6510   1.360   .     S
C6509  N6515   1.360   .     D
C6509  H6517   0.950   .     S
C6510  C6511   1.500   .     S
C6511  C6513   1.390   .     S
C6511  C6577   1.390   .     S
C6512  C6513   1.390   .     D
C6512  H6518   0.950   .     S
C6512  C6576   1.390   .     S
C6513  H6519   0.950   .     S
N6514  N6515   1.360   .     S
N6514  Fe5292  2.091   1_565 S
N6515  Fe6586  2.139   .     S
H6520  C6523   0.750   .     S
H6520  C6524   0.750   .     S
C6521  C6523   1.360   .     S
C6521  N6527   1.360   .     D
C6521  H6529   0.950   .     S
C6522  C6523   1.360   .     S
C6522  N6528   1.360   .     D
C6522  H6530   0.950   .     S
C6523  C6524   1.500   .     S
C6524  C6526   1.390   .     S
C6524  C6564   1.390   .     S
C6525  C6526   1.390   .     D
C6525  H6531   0.950   .     S
C6525  C6563   1.390   .     S
C6526  H6532   0.950   .     S
N6527  N6528   1.360   .     S
N6527  Fe6587  2.091   .     S
N6528  Fe6585  2.139   .     S
H6533  C6536   0.750   .     S
H6533  C6537   0.750   .     S
C6534  C6536   1.360   .     S
C6534  N6540   1.360   .     D
C6534  H6542   0.950   .     S
C6535  C1352   1.360   1_556 S
C6535  N6541   1.360   .     D
C6535  H6543   0.950   .     S
C6536  C6537   1.500   .     S
C6537  C6539   1.390   .     S
C6538  C6539   1.390   .     D
C6538  H6544   0.950   .     S
C6539  H6545   0.950   .     S
N6541  N1356   1.360   1_556 S
N6541  Fe6588  2.139   .     S
H6546  C6549   0.750   .     S
H6546  C6550   0.750   .     S
C6547  C6549   1.360   .     S
C6547  N6553   1.360   .     D
C6547  H6555   0.950   .     S
C6548  C1365   1.360   1_556 S
C6548  N6554   1.360   .     D
C6548  H6556   0.950   .     S
C6549  C6550   1.500   .     S
C6550  C6552   1.390   .     S
C6551  C6552   1.390   .     D
C6551  H6557   0.950   .     S
C6552  H6558   0.950   .     S
N6553  Fe6585  2.091   .     S
N6554  N1369   1.360   1_556 S
N6554  Fe6587  2.139   .     S
H6559  C6562   0.750   .     S
H6559  C6563   0.750   .     S
C6560  C6562   1.360   .     S
C6560  N6566   1.360   .     D
C6560  H6568   0.950   .     S
C6561  C6562   1.360   .     S
C6561  N6567   1.360   .     D
C6561  H6569   0.950   .     S
C6562  C6563   1.500   .     S
C6563  C6565   1.390   .     S
C6564  C6565   1.390   .     D
C6564  H6570   0.950   .     S
C6565  H6571   0.950   .     S
N6566  N6567   1.360   .     S
N6567  Fe6588  2.139   .     S
H6572  C6575   0.750   .     S
H6572  C6576   0.750   .     S
C6573  C6575   1.360   .     S
C6573  N6579   1.360   .     D
C6573  H6581   0.950   .     S
C6574  C6575   1.360   .     S
C6574  N6580   1.360   .     D
C6574  H6582   0.950   .     S
C6575  C6576   1.500   .     S
C6576  C6578   1.390   .     S
C6577  C6578   1.390   .     D
C6577  H6583   0.950   .     S
C6578  H6584   0.950   .     S
N6579  N6580   1.360   .     S
N6579  Fe6693  2.091   .     S
N6580  Fe6695  2.139   .     S
Fe6585 N6903   2.091   1_455 S
Fe6585 N6826   2.139   1_455 S
Fe6586 N5244   2.091   1_565 S
Fe6586 N5270   2.091   1_565 S
Fe6587 N6825   2.091   1_455 S
Fe6587 N6904   2.139   1_455 S
H6589  C6592   0.750   .     S
H6589  C6593   0.750   .     S
C6590  C6592   1.360   .     S
C6590  N6596   1.360   .     D
C6590  H6598   0.950   .     S
C6591  N6597   1.360   .     D
C6591  H6599   0.950   .     S
C6592  C1407   1.360   1_556 S
C6592  C6593   1.500   .     S
C6593  C6595   1.390   .     S
C6593  C1475   1.390   1_556 S
C6594  C6595   1.390   .     D
C6594  H6600   0.950   .     S
C6594  C1474   1.390   1_556 S
C6595  H6601   0.950   .     S
N6596  N1413   1.360   1_556 S
N6596  Fe5400  2.091   1_565 S
N6597  Fe6694  2.139   .     S
H6602  C6605   0.750   .     S
H6602  C6606   0.750   .     S
C6603  C6605   1.360   .     S
C6603  N6609   1.360   .     D
C6603  H6611   0.950   .     S
C6604  N6610   1.360   .     D
C6604  H6612   0.950   .     S
C6605  C1420   1.360   1_556 S
C6605  C6606   1.500   .     S
C6606  C6608   1.390   .     S
C6606  C1462   1.390   1_556 S
C6607  C6608   1.390   .     D
C6607  H6613   0.950   .     S
C6607  C1461   1.390   1_556 S
C6608  H6614   0.950   .     S
N6609  N1426   1.360   1_556 S
N6609  Fe6803  2.091   .     S
N6610  Fe6801  2.139   .     S
H6615  C6618   0.750   .     S
H6615  C6619   0.750   .     S
C6616  C6618   1.360   .     S
C6616  N6622   1.360   .     D
C6616  H6624   0.950   .     S
C6617  C6618   1.360   .     S
C6617  N6623   1.360   .     D
C6617  H6625   0.950   .     S
C6618  C6619   1.500   .     S
C6619  C6621   1.390   .     S
C6619  C6685   1.390   .     S
C6620  C6621   1.390   .     D
C6620  H6626   0.950   .     S
C6620  C6684   1.390   .     S
C6621  H6627   0.950   .     S
N6622  N6623   1.360   .     S
N6622  Fe5400  2.091   1_565 S
N6623  Fe6694  2.139   .     S
H6628  C6631   0.750   .     S
H6628  C6632   0.750   .     S
C6629  C6631   1.360   .     S
C6629  N6635   1.360   .     D
C6629  H6637   0.950   .     S
C6630  C6631   1.360   .     S
C6630  N6636   1.360   .     D
C6630  H6638   0.950   .     S
C6631  C6632   1.500   .     S
C6632  C6634   1.390   .     S
C6632  C6672   1.390   .     S
C6633  C6634   1.390   .     D
C6633  H6639   0.950   .     S
C6633  C6671   1.390   .     S
C6634  H6640   0.950   .     S
N6635  N6636   1.360   .     S
N6635  Fe6695  2.091   .     S
N6636  Fe6693  2.139   .     S
H6641  C6644   0.750   .     S
H6641  C6645   0.750   .     S
C6642  C6644   1.360   .     S
C6642  N6648   1.360   .     D
C6642  H6650   0.950   .     S
C6643  C1460   1.360   1_556 S
C6643  N6649   1.360   .     D
C6643  H6651   0.950   .     S
C6644  C6645   1.500   .     S
C6645  C6647   1.390   .     S
C6646  C6647   1.390   .     D
C6646  H6652   0.950   .     S
C6647  H6653   0.950   .     S
N6649  N1464   1.360   1_556 S
N6649  Fe6696  2.139   .     S
H6654  C6657   0.750   .     S
H6654  C6658   0.750   .     S
C6655  C6657   1.360   .     S
C6655  N6661   1.360   .     D
C6655  H6663   0.950   .     S
C6656  C1473   1.360   1_556 S
C6656  N6662   1.360   .     D
C6656  H6664   0.950   .     S
C6657  C6658   1.500   .     S
C6658  C6660   1.390   .     S
C6659  C6660   1.390   .     D
C6659  H6665   0.950   .     S
C6660  H6666   0.950   .     S
N6661  Fe6693  2.091   .     S
N6662  N1477   1.360   1_556 S
N6662  Fe6695  2.139   .     S
H6667  C6670   0.750   .     S
H6667  C6671   0.750   .     S
C6668  C6670   1.360   .     S
C6668  N6674   1.360   .     D
C6668  H6676   0.950   .     S
C6669  C6670   1.360   .     S
C6669  N6675   1.360   .     D
C6669  H6677   0.950   .     S
C6670  C6671   1.500   .     S
C6671  C6673   1.390   .     S
C6672  C6673   1.390   .     D
C6672  H6678   0.950   .     S
C6673  H6679   0.950   .     S
N6674  N6675   1.360   .     S
N6675  Fe6696  2.139   .     S
H6680  C6683   0.750   .     S
H6680  C6684   0.750   .     S
C6681  C6683   1.360   .     S
C6681  N6687   1.360   .     D
C6681  H6689   0.950   .     S
C6682  C6683   1.360   .     S
C6682  N6688   1.360   .     D
C6682  H6690   0.950   .     S
C6683  C6684   1.500   .     S
C6684  C6686   1.390   .     S
C6685  C6686   1.390   .     D
C6685  H6691   0.950   .     S
C6686  H6692   0.950   .     S
N6687  N6688   1.360   .     S
N6687  Fe6801  2.091   .     S
N6688  Fe6803  2.139   .     S
Fe6694 N5352   2.091   1_565 S
Fe6694 N5378   2.091   1_565 S
H6697  C6700   0.750   .     S
H6697  C6701   0.750   .     S
C6698  C6700   1.360   .     S
C6698  N6704   1.360   .     D
C6698  H6706   0.950   .     S
C6699  N6705   1.360   .     D
C6699  H6707   0.950   .     S
C6700  C1515   1.360   1_556 S
C6700  C6701   1.500   .     S
C6701  C6703   1.390   .     S
C6701  C1583   1.390   1_556 S
C6702  C6703   1.390   .     D
C6702  H6708   0.950   .     S
C6702  C1582   1.390   1_556 S
C6703  H6709   0.950   .     S
N6704  N1521   1.360   1_556 S
N6704  Fe5508  2.091   1_565 S
N6705  Fe6802  2.139   .     S
H6710  C6713   0.750   .     S
H6710  C6714   0.750   .     S
C6711  C6713   1.360   .     S
C6711  N6717   1.360   .     D
C6711  H6719   0.950   .     S
C6712  N6718   1.360   .     D
C6712  H6720   0.950   .     S
C6713  C1528   1.360   1_556 S
C6713  C6714   1.500   .     S
C6714  C6716   1.390   .     S
C6714  C1570   1.390   1_556 S
C6715  C6716   1.390   .     D
C6715  H6721   0.950   .     S
C6715  C1569   1.390   1_556 S
C6716  H6722   0.950   .     S
N6717  N1534   1.360   1_556 S
N6717  Fe6911  2.091   .     S
N6718  Fe6909  2.139   .     S
H6723  C6726   0.750   .     S
H6723  C6727   0.750   .     S
C6724  C6726   1.360   .     S
C6724  N6730   1.360   .     D
C6724  H6732   0.950   .     S
C6725  C6726   1.360   .     S
C6725  N6731   1.360   .     D
C6725  H6733   0.950   .     S
C6726  C6727   1.500   .     S
C6727  C6729   1.390   .     S
C6727  C6793   1.390   .     S
C6728  C6729   1.390   .     D
C6728  H6734   0.950   .     S
C6728  C6792   1.390   .     S
C6729  H6735   0.950   .     S
N6730  N6731   1.360   .     S
N6730  Fe5508  2.091   1_565 S
N6731  Fe6802  2.139   .     S
H6736  C6739   0.750   .     S
H6736  C6740   0.750   .     S
C6737  C6739   1.360   .     S
C6737  N6743   1.360   .     D
C6737  H6745   0.950   .     S
C6738  C6739   1.360   .     S
C6738  N6744   1.360   .     D
C6738  H6746   0.950   .     S
C6739  C6740   1.500   .     S
C6740  C6742   1.390   .     S
C6740  C6780   1.390   .     S
C6741  C6742   1.390   .     D
C6741  H6747   0.950   .     S
C6741  C6779   1.390   .     S
C6742  H6748   0.950   .     S
N6743  N6744   1.360   .     S
N6743  Fe6803  2.091   .     S
N6744  Fe6801  2.139   .     S
H6749  C6752   0.750   .     S
H6749  C6753   0.750   .     S
C6750  C6752   1.360   .     S
C6750  N6756   1.360   .     D
C6750  H6758   0.950   .     S
C6751  C1568   1.360   1_556 S
C6751  N6757   1.360   .     D
C6751  H6759   0.950   .     S
C6752  C6753   1.500   .     S
C6753  C6755   1.390   .     S
C6754  C6755   1.390   .     D
C6754  H6760   0.950   .     S
C6755  H6761   0.950   .     S
N6757  N1572   1.360   1_556 S
N6757  Fe6804  2.139   .     S
H6762  C6765   0.750   .     S
H6762  C6766   0.750   .     S
C6763  C6765   1.360   .     S
C6763  N6769   1.360   .     D
C6763  H6771   0.950   .     S
C6764  C1581   1.360   1_556 S
C6764  N6770   1.360   .     D
C6764  H6772   0.950   .     S
C6765  C6766   1.500   .     S
C6766  C6768   1.390   .     S
C6767  C6768   1.390   .     D
C6767  H6773   0.950   .     S
C6768  H6774   0.950   .     S
N6769  Fe6801  2.091   .     S
N6770  N1585   1.360   1_556 S
N6770  Fe6803  2.139   .     S
H6775  C6778   0.750   .     S
H6775  C6779   0.750   .     S
C6776  C6778   1.360   .     S
C6776  N6782   1.360   .     D
C6776  H6784   0.950   .     S
C6777  C6778   1.360   .     S
C6777  N6783   1.360   .     D
C6777  H6785   0.950   .     S
C6778  C6779   1.500   .     S
C6779  C6781   1.390   .     S
C6780  C6781   1.390   .     D
C6780  H6786   0.950   .     S
C6781  H6787   0.950   .     S
N6782  N6783   1.360   .     S
N6783  Fe6804  2.139   .     S
H6788  C6791   0.750   .     S
H6788  C6792   0.750   .     S
C6789  C6791   1.360   .     S
C6789  N6795   1.360   .     D
C6789  H6797   0.950   .     S
C6790  C6791   1.360   .     S
C6790  N6796   1.360   .     D
C6790  H6798   0.950   .     S
C6791  C6792   1.500   .     S
C6792  C6794   1.390   .     S
C6793  C6794   1.390   .     D
C6793  H6799   0.950   .     S
C6794  H6800   0.950   .     S
N6795  N6796   1.360   .     S
N6795  Fe6909  2.091   .     S
N6796  Fe6911  2.139   .     S
Fe6802 N5460   2.091   1_565 S
Fe6802 N5486   2.091   1_565 S
H6805  C6808   0.750   .     S
H6805  C6809   0.750   .     S
C6806  C6808   1.360   .     S
C6806  N6812   1.360   .     D
C6806  H6814   0.950   .     S
C6807  N6813   1.360   .     D
C6807  H6815   0.950   .     S
C6808  C1623   1.360   1_556 S
C6808  C6809   1.500   .     S
C6809  C6811   1.390   .     S
C6809  C1691   1.390   1_556 S
C6810  C6811   1.390   .     D
C6810  H6816   0.950   .     S
C6810  C1690   1.390   1_556 S
C6811  H6817   0.950   .     S
N6812  N1629   1.360   1_556 S
N6812  Fe5616  2.091   1_565 S
N6813  Fe6910  2.139   .     S
H6818  C6821   0.750   .     S
H6818  C6822   0.750   .     S
C6819  C6821   1.360   .     S
C6819  N6825   1.360   .     D
C6819  H6827   0.950   .     S
C6820  N6826   1.360   .     D
C6820  H6828   0.950   .     S
C6821  C1636   1.360   1_556 S
C6821  C6822   1.500   .     S
C6822  C6824   1.390   .     S
C6822  C1678   1.390   1_556 S
C6823  C6824   1.390   .     D
C6823  H6829   0.950   .     S
C6823  C1677   1.390   1_556 S
C6824  H6830   0.950   .     S
N6825  N1642   1.360   1_556 S
N6825  Fe6587  2.091   1_655 S
N6826  Fe6585  2.139   1_655 S
H6831  C6834   0.750   .     S
H6831  C6835   0.750   .     S
C6832  C6834   1.360   .     S
C6832  N6838   1.360   .     D
C6832  H6840   0.950   .     S
C6833  C6834   1.360   .     S
C6833  N6839   1.360   .     D
C6833  H6841   0.950   .     S
C6834  C6835   1.500   .     S
C6835  C6837   1.390   .     S
C6835  C6901   1.390   .     S
C6836  C6837   1.390   .     D
C6836  H6842   0.950   .     S
C6836  C6900   1.390   .     S
C6837  H6843   0.950   .     S
N6838  N6839   1.360   .     S
N6838  Fe5616  2.091   1_565 S
N6839  Fe6910  2.139   .     S
H6844  C6847   0.750   .     S
H6844  C6848   0.750   .     S
C6845  C6847   1.360   .     S
C6845  N6851   1.360   .     D
C6845  H6853   0.950   .     S
C6846  C6847   1.360   .     S
C6846  N6852   1.360   .     D
C6846  H6854   0.950   .     S
C6847  C6848   1.500   .     S
C6848  C6850   1.390   .     S
C6848  C6888   1.390   .     S
C6849  C6850   1.390   .     D
C6849  H6855   0.950   .     S
C6849  C6887   1.390   .     S
C6850  H6856   0.950   .     S
N6851  N6852   1.360   .     S
N6851  Fe6911  2.091   .     S
N6852  Fe6909  2.139   .     S
H6857  C6860   0.750   .     S
H6857  C6861   0.750   .     S
C6858  C6860   1.360   .     S
C6858  N6864   1.360   .     D
C6858  H6866   0.950   .     S
C6859  C1676   1.360   1_556 S
C6859  N6865   1.360   .     D
C6859  H6867   0.950   .     S
C6860  C6861   1.500   .     S
C6861  C6863   1.390   .     S
C6862  C6863   1.390   .     D
C6862  H6868   0.950   .     S
C6863  H6869   0.950   .     S
N6865  N1680   1.360   1_556 S
N6865  Fe6912  2.139   .     S
H6870  C6873   0.750   .     S
H6870  C6874   0.750   .     S
C6871  C6873   1.360   .     S
C6871  N6877   1.360   .     D
C6871  H6879   0.950   .     S
C6872  C1689   1.360   1_556 S
C6872  N6878   1.360   .     D
C6872  H6880   0.950   .     S
C6873  C6874   1.500   .     S
C6874  C6876   1.390   .     S
C6875  C6876   1.390   .     D
C6875  H6881   0.950   .     S
C6876  H6882   0.950   .     S
N6877  Fe6909  2.091   .     S
N6878  N1693   1.360   1_556 S
N6878  Fe6911  2.139   .     S
H6883  C6886   0.750   .     S
H6883  C6887   0.750   .     S
C6884  C6886   1.360   .     S
C6884  N6890   1.360   .     D
C6884  H6892   0.950   .     S
C6885  C6886   1.360   .     S
C6885  N6891   1.360   .     D
C6885  H6893   0.950   .     S
C6886  C6887   1.500   .     S
C6887  C6889   1.390   .     S
C6888  C6889   1.390   .     D
C6888  H6894   0.950   .     S
C6889  H6895   0.950   .     S
N6890  N6891   1.360   .     S
N6891  Fe6912  2.139   .     S
H6896  C6899   0.750   .     S
H6896  C6900   0.750   .     S
C6897  C6899   1.360   .     S
C6897  N6903   1.360   .     D
C6897  H6905   0.950   .     S
C6898  C6899   1.360   .     S
C6898  N6904   1.360   .     D
C6898  H6906   0.950   .     S
C6899  C6900   1.500   .     S
C6900  C6902   1.390   .     S
C6901  C6902   1.390   .     D
C6901  H6907   0.950   .     S
C6902  H6908   0.950   .     S
N6903  N6904   1.360   .     S
N6903  Fe6585  2.091   1_655 S
N6904  Fe6587  2.139   1_655 S
Fe6910 N5568   2.091   1_565 S
Fe6910 N5594   2.091   1_565 S
