data_FeBDP_edited
_audit_creation_date              2020-07-31
_audit_creation_method            'Materials Studio'
_symmetry_space_group_name_H-M    'P1'
_symmetry_Int_Tables_number       1
_symmetry_cell_setting            triclinic
loop_
_symmetry_equiv_pos_as_xyz
  x,y,z
_cell_length_a                    100.3420
_cell_length_b                    27.5511
_cell_length_c                    27.9396
_cell_angle_alpha                 90.0000
_cell_angle_beta                  91.6527
_cell_angle_gamma                 90.0000
loop_
_atom_site_label
_atom_site_type_symbol
_atom_site_fract_x
_atom_site_fract_y
_atom_site_fract_z
_atom_site_U_iso_or_equiv
_atom_site_adp_type
_atom_site_occupancy
C1     C     0.15202   0.03174   0.04052   0.00000  Uiso   1.00
C2     C     0.15017   0.06671   0.21983   0.00000  Uiso   1.00
C3     C     0.15898   0.05333   0.00529   0.00000  Uiso   1.00
C4     C     0.17378   0.06104   0.00552   0.00000  Uiso   1.00
C5     C     0.19582   0.03368   0.02869   0.00000  Uiso   1.00
C6     C     0.18211   0.03221   0.03420   0.00000  Uiso   1.00
N7     N     0.13891   0.03177   0.02682   0.00000  Uiso   1.00
N8     N     0.13776   0.05338   0.23314   0.00000  Uiso   1.00
H9     H     0.15568   0.01889   0.06958   0.00000  Uiso   1.00
H10    H     0.15230   0.08257   0.19085   0.00000  Uiso   1.00
H11    H     0.20151   0.01398   0.04829   0.00000  Uiso   1.00
H12    H     0.17842   0.01152   0.05758   0.00000  Uiso   1.00
C13    C     0.02702   0.15674   0.04052   0.00000  Uiso   1.00
C14    C     0.02517   0.19171   0.21983   0.00000  Uiso   1.00
C15    C     0.03398   0.17833   0.00529   0.00000  Uiso   1.00
C16    C     0.04878   0.18604   0.00552   0.00000  Uiso   1.00
C17    C     0.07082   0.15868   0.02869   0.00000  Uiso   1.00
C18    C     0.05711   0.15721   0.03420   0.00000  Uiso   1.00
N19    N     0.01391   0.15677   0.02682   0.00000  Uiso   1.00
N20    N     0.01276   0.17838   0.23314   0.00000  Uiso   1.00
H21    H     0.03068   0.14389   0.06958   0.00000  Uiso   1.00
H22    H     0.02730   0.20757   0.19085   0.00000  Uiso   1.00
H23    H     0.07651   0.13898   0.04829   0.00000  Uiso   1.00
H24    H     0.05342   0.13652   0.05758   0.00000  Uiso   1.00
C25    C     0.09798   0.03174   0.08448   0.00000  Uiso   1.00
C26    C     0.09983   0.06671   0.15517   0.00000  Uiso   1.00
C27    C     0.09102   0.05333   0.11971   0.00000  Uiso   1.00
C28    C     0.07622   0.06104   0.11948   0.00000  Uiso   1.00
C29    C     0.05418   0.03368   0.09631   0.00000  Uiso   1.00
C30    C     0.06789   0.03221   0.09080   0.00000  Uiso   1.00
N31    N     0.11109   0.03177   0.09818   0.00000  Uiso   1.00
N32    N     0.11224   0.05338   0.14186   0.00000  Uiso   1.00
H33    H     0.09432   0.01889   0.05542   0.00000  Uiso   1.00
H34    H     0.09770   0.08257   0.18415   0.00000  Uiso   1.00
H35    H     0.04849   0.01398   0.07671   0.00000  Uiso   1.00
H36    H     0.07158   0.01152   0.06742   0.00000  Uiso   1.00
C37    C     0.22298   0.15674   0.08448   0.00000  Uiso   1.00
C38    C     0.22483   0.19171   0.15517   0.00000  Uiso   1.00
C39    C     0.21602   0.17833   0.11971   0.00000  Uiso   1.00
C40    C     0.20122   0.18604   0.11948   0.00000  Uiso   1.00
C41    C     0.17918   0.15868   0.09631   0.00000  Uiso   1.00
C42    C     0.19289   0.15721   0.09080   0.00000  Uiso   1.00
N43    N     0.23609   0.15677   0.09818   0.00000  Uiso   1.00
N44    N     0.23724   0.17838   0.14186   0.00000  Uiso   1.00
H45    H     0.21932   0.14389   0.05542   0.00000  Uiso   1.00
H46    H     0.22270   0.20757   0.18415   0.00000  Uiso   1.00
H47    H     0.17349   0.13898   0.07671   0.00000  Uiso   1.00
H48    H     0.19658   0.13652   0.06742   0.00000  Uiso   1.00
C49    C     0.09798   0.21826   0.20948   0.00000  Uiso   1.00
C50    C     0.09983   0.18329   0.03017   0.00000  Uiso   1.00
C51    C     0.09102   0.19667   0.24471   0.00000  Uiso   1.00
C52    C     0.07622   0.18896   0.24448   0.00000  Uiso   1.00
C53    C     0.05418   0.21632   0.22131   0.00000  Uiso   1.00
C54    C     0.06789   0.21779   0.21580   0.00000  Uiso   1.00
N55    N     0.11109   0.21823   0.22318   0.00000  Uiso   1.00
N56    N     0.11224   0.19662   0.01686   0.00000  Uiso   1.00
H57    H     0.09432   0.23111   0.18042   0.00000  Uiso   1.00
H58    H     0.09770   0.16743   0.05915   0.00000  Uiso   1.00
H59    H     0.04849   0.23602   0.20171   0.00000  Uiso   1.00
H60    H     0.07158   0.23848   0.19242   0.00000  Uiso   1.00
C61    C     0.22298   0.09326   0.20948   0.00000  Uiso   1.00
C62    C     0.22483   0.05829   0.03017   0.00000  Uiso   1.00
C63    C     0.21602   0.07167   0.24471   0.00000  Uiso   1.00
C64    C     0.20122   0.06396   0.24448   0.00000  Uiso   1.00
C65    C     0.17918   0.09132   0.22131   0.00000  Uiso   1.00
C66    C     0.19289   0.09279   0.21580   0.00000  Uiso   1.00
N67    N     0.23609   0.09323   0.22318   0.00000  Uiso   1.00
N68    N     0.23724   0.07162   0.01686   0.00000  Uiso   1.00
H69    H     0.21932   0.10611   0.18042   0.00000  Uiso   1.00
H70    H     0.22270   0.04243   0.05915   0.00000  Uiso   1.00
H71    H     0.17349   0.11102   0.20171   0.00000  Uiso   1.00
H72    H     0.19658   0.11348   0.19242   0.00000  Uiso   1.00
C73    C     0.15202   0.21826   0.16552   0.00000  Uiso   1.00
C74    C     0.15017   0.18329   0.09483   0.00000  Uiso   1.00
C75    C     0.15898   0.19667   0.13029   0.00000  Uiso   1.00
C76    C     0.17378   0.18896   0.13052   0.00000  Uiso   1.00
C77    C     0.19582   0.21632   0.15369   0.00000  Uiso   1.00
C78    C     0.18211   0.21779   0.15920   0.00000  Uiso   1.00
N79    N     0.13891   0.21823   0.15182   0.00000  Uiso   1.00
N80    N     0.13776   0.19662   0.10814   0.00000  Uiso   1.00
H81    H     0.15568   0.23111   0.19458   0.00000  Uiso   1.00
H82    H     0.15230   0.16743   0.06585   0.00000  Uiso   1.00
H83    H     0.20151   0.23602   0.17329   0.00000  Uiso   1.00
H84    H     0.17842   0.23848   0.18258   0.00000  Uiso   1.00
C85    C     0.02702   0.09326   0.16552   0.00000  Uiso   1.00
C86    C     0.02517   0.05829   0.09483   0.00000  Uiso   1.00
C87    C     0.03398   0.07167   0.13029   0.00000  Uiso   1.00
C88    C     0.04878   0.06396   0.13052   0.00000  Uiso   1.00
C89    C     0.07082   0.09132   0.15369   0.00000  Uiso   1.00
C90    C     0.05711   0.09279   0.15920   0.00000  Uiso   1.00
N91    N     0.01391   0.09323   0.15182   0.00000  Uiso   1.00
N92    N     0.01276   0.07162   0.10814   0.00000  Uiso   1.00
H93    H     0.03068   0.10611   0.19458   0.00000  Uiso   1.00
H94    H     0.02730   0.04243   0.06585   0.00000  Uiso   1.00
H95    H     0.07651   0.11102   0.17329   0.00000  Uiso   1.00
H96    H     0.05342   0.11348   0.18258   0.00000  Uiso   1.00
Fe97   Fe    0.12500   0.23961   0.06250   0.00000  Uiso   1.00
Fe98   Fe    0.00000   0.11461   0.06250   0.00000  Uiso   1.00
Fe99   Fe    0.12500   0.01039   0.18750   0.00000  Uiso   1.00
Fe100  Fe   -0.00000   0.13539   0.18750   0.00000  Uiso   1.00
C101   C     0.40202   0.03174   0.04052   0.00000  Uiso   1.00
C102   C     0.40017   0.06671   0.21983   0.00000  Uiso   1.00
C103   C     0.40898   0.05333   0.00529   0.00000  Uiso   1.00
C104   C     0.42378   0.06104   0.00552   0.00000  Uiso   1.00
C105   C     0.44582   0.03368   0.02869   0.00000  Uiso   1.00
C106   C     0.43211   0.03221   0.03420   0.00000  Uiso   1.00
N107   N     0.38891   0.03177   0.02682   0.00000  Uiso   1.00
N108   N     0.38776   0.05338   0.23314   0.00000  Uiso   1.00
H109   H     0.40568   0.01889   0.06958   0.00000  Uiso   1.00
H110   H     0.40230   0.08257   0.19085   0.00000  Uiso   1.00
H111   H     0.45151   0.01398   0.04829   0.00000  Uiso   1.00
H112   H     0.42842   0.01152   0.05758   0.00000  Uiso   1.00
C113   C     0.27702   0.15674   0.04052   0.00000  Uiso   1.00
C114   C     0.27517   0.19171   0.21983   0.00000  Uiso   1.00
C115   C     0.28398   0.17833   0.00529   0.00000  Uiso   1.00
C116   C     0.29878   0.18604   0.00552   0.00000  Uiso   1.00
C117   C     0.32082   0.15868   0.02869   0.00000  Uiso   1.00
C118   C     0.30711   0.15721   0.03420   0.00000  Uiso   1.00
N119   N     0.26391   0.15677   0.02682   0.00000  Uiso   1.00
N120   N     0.26276   0.17838   0.23314   0.00000  Uiso   1.00
H121   H     0.28068   0.14389   0.06958   0.00000  Uiso   1.00
H122   H     0.27730   0.20757   0.19085   0.00000  Uiso   1.00
H123   H     0.32651   0.13898   0.04829   0.00000  Uiso   1.00
H124   H     0.30342   0.13652   0.05758   0.00000  Uiso   1.00
C125   C     0.34798   0.03174   0.08448   0.00000  Uiso   1.00
C126   C     0.34983   0.06671   0.15517   0.00000  Uiso   1.00
C127   C     0.34102   0.05333   0.11971   0.00000  Uiso   1.00
C128   C     0.32622   0.06104   0.11948   0.00000  Uiso   1.00
C129   C     0.30418   0.03368   0.09631   0.00000  Uiso   1.00
C130   C     0.31789   0.03221   0.09080   0.00000  Uiso   1.00
N131   N     0.36109   0.03177   0.09818   0.00000  Uiso   1.00
N132   N     0.36224   0.05338   0.14186   0.00000  Uiso   1.00
H133   H     0.34432   0.01889   0.05542   0.00000  Uiso   1.00
H134   H     0.34770   0.08257   0.18415   0.00000  Uiso   1.00
H135   H     0.29849   0.01398   0.07671   0.00000  Uiso   1.00
H136   H     0.32158   0.01152   0.06742   0.00000  Uiso   1.00
C137   C     0.47298   0.15674   0.08448   0.00000  Uiso   1.00
C138   C     0.47483   0.19171   0.15517   0.00000  Uiso   1.00
C139   C     0.46602   0.17833   0.11971   0.00000  Uiso   1.00
C140   C     0.45122   0.18604   0.11948   0.00000  Uiso   1.00
C141   C     0.42918   0.15868   0.09631   0.00000  Uiso   1.00
C142   C     0.44289   0.15721   0.09080   0.00000  Uiso   1.00
N143   N     0.48609   0.15677   0.09818   0.00000  Uiso   1.00
N144   N     0.48724   0.17838   0.14186   0.00000  Uiso   1.00
H145   H     0.46932   0.14389   0.05542   0.00000  Uiso   1.00
H146   H     0.47270   0.20757   0.18415   0.00000  Uiso   1.00
H147   H     0.42349   0.13898   0.07671   0.00000  Uiso   1.00
H148   H     0.44658   0.13652   0.06742   0.00000  Uiso   1.00
C149   C     0.34798   0.21826   0.20948   0.00000  Uiso   1.00
C150   C     0.34983   0.18329   0.03017   0.00000  Uiso   1.00
C151   C     0.34102   0.19667   0.24471   0.00000  Uiso   1.00
C152   C     0.32622   0.18896   0.24448   0.00000  Uiso   1.00
C153   C     0.30418   0.21632   0.22131   0.00000  Uiso   1.00
C154   C     0.31789   0.21779   0.21580   0.00000  Uiso   1.00
N155   N     0.36109   0.21823   0.22318   0.00000  Uiso   1.00
N156   N     0.36224   0.19662   0.01686   0.00000  Uiso   1.00
H157   H     0.34432   0.23111   0.18042   0.00000  Uiso   1.00
H158   H     0.34770   0.16743   0.05915   0.00000  Uiso   1.00
H159   H     0.29849   0.23602   0.20171   0.00000  Uiso   1.00
H160   H     0.32158   0.23848   0.19242   0.00000  Uiso   1.00
C161   C     0.47298   0.09326   0.20948   0.00000  Uiso   1.00
C162   C     0.47483   0.05829   0.03017   0.00000  Uiso   1.00
C163   C     0.46602   0.07167   0.24471   0.00000  Uiso   1.00
C164   C     0.45122   0.06396   0.24448   0.00000  Uiso   1.00
C165   C     0.42918   0.09132   0.22131   0.00000  Uiso   1.00
C166   C     0.44289   0.09279   0.21580   0.00000  Uiso   1.00
N167   N     0.48609   0.09323   0.22318   0.00000  Uiso   1.00
N168   N     0.48724   0.07162   0.01686   0.00000  Uiso   1.00
H169   H     0.46932   0.10611   0.18042   0.00000  Uiso   1.00
H170   H     0.47270   0.04243   0.05915   0.00000  Uiso   1.00
H171   H     0.42349   0.11102   0.20171   0.00000  Uiso   1.00
H172   H     0.44658   0.11348   0.19242   0.00000  Uiso   1.00
C173   C     0.40202   0.21826   0.16552   0.00000  Uiso   1.00
C174   C     0.40017   0.18329   0.09483   0.00000  Uiso   1.00
C175   C     0.40898   0.19667   0.13029   0.00000  Uiso   1.00
C176   C     0.42378   0.18896   0.13052   0.00000  Uiso   1.00
C177   C     0.44582   0.21632   0.15369   0.00000  Uiso   1.00
C178   C     0.43211   0.21779   0.15920   0.00000  Uiso   1.00
N179   N     0.38891   0.21823   0.15182   0.00000  Uiso   1.00
N180   N     0.38776   0.19662   0.10814   0.00000  Uiso   1.00
H181   H     0.40568   0.23111   0.19458   0.00000  Uiso   1.00
H182   H     0.40230   0.16743   0.06585   0.00000  Uiso   1.00
H183   H     0.45151   0.23602   0.17329   0.00000  Uiso   1.00
H184   H     0.42842   0.23848   0.18258   0.00000  Uiso   1.00
C185   C     0.27702   0.09326   0.16552   0.00000  Uiso   1.00
C186   C     0.27517   0.05829   0.09483   0.00000  Uiso   1.00
C187   C     0.28398   0.07167   0.13029   0.00000  Uiso   1.00
C188   C     0.29878   0.06396   0.13052   0.00000  Uiso   1.00
C189   C     0.32082   0.09132   0.15369   0.00000  Uiso   1.00
C190   C     0.30711   0.09279   0.15920   0.00000  Uiso   1.00
N191   N     0.26391   0.09323   0.15182   0.00000  Uiso   1.00
N192   N     0.26276   0.07162   0.10814   0.00000  Uiso   1.00
H193   H     0.28068   0.10611   0.19458   0.00000  Uiso   1.00
H194   H     0.27730   0.04243   0.06585   0.00000  Uiso   1.00
H195   H     0.32651   0.11102   0.17329   0.00000  Uiso   1.00
H196   H     0.30342   0.11348   0.18258   0.00000  Uiso   1.00
Fe197  Fe    0.37500   0.23961   0.06250   0.00000  Uiso   1.00
Fe198  Fe    0.25000   0.11461   0.06250   0.00000  Uiso   1.00
Fe199  Fe    0.37500   0.01039   0.18750   0.00000  Uiso   1.00
Fe200  Fe    0.25000   0.13539   0.18750   0.00000  Uiso   1.00
C201   C     0.65202   0.03174   0.04052   0.00000  Uiso   1.00
C202   C     0.65017   0.06671   0.21983   0.00000  Uiso   1.00
C203   C     0.65898   0.05333   0.00529   0.00000  Uiso   1.00
C204   C     0.67378   0.06104   0.00552   0.00000  Uiso   1.00
C205   C     0.69582   0.03368   0.02869   0.00000  Uiso   1.00
C206   C     0.68211   0.03221   0.03420   0.00000  Uiso   1.00
N207   N     0.63891   0.03177   0.02682   0.00000  Uiso   1.00
N208   N     0.63776   0.05338   0.23314   0.00000  Uiso   1.00
H209   H     0.65568   0.01889   0.06958   0.00000  Uiso   1.00
H210   H     0.65230   0.08257   0.19085   0.00000  Uiso   1.00
H211   H     0.70151   0.01398   0.04829   0.00000  Uiso   1.00
H212   H     0.67842   0.01152   0.05758   0.00000  Uiso   1.00
C213   C     0.52702   0.15674   0.04052   0.00000  Uiso   1.00
C214   C     0.52517   0.19171   0.21983   0.00000  Uiso   1.00
C215   C     0.53398   0.17833   0.00529   0.00000  Uiso   1.00
C216   C     0.54878   0.18604   0.00552   0.00000  Uiso   1.00
C217   C     0.57082   0.15868   0.02869   0.00000  Uiso   1.00
C218   C     0.55711   0.15721   0.03420   0.00000  Uiso   1.00
N219   N     0.51391   0.15677   0.02682   0.00000  Uiso   1.00
N220   N     0.51276   0.17838   0.23314   0.00000  Uiso   1.00
H221   H     0.53068   0.14389   0.06958   0.00000  Uiso   1.00
H222   H     0.52730   0.20757   0.19085   0.00000  Uiso   1.00
H223   H     0.57651   0.13898   0.04829   0.00000  Uiso   1.00
H224   H     0.55342   0.13652   0.05758   0.00000  Uiso   1.00
C225   C     0.59798   0.03174   0.08448   0.00000  Uiso   1.00
C226   C     0.59983   0.06671   0.15517   0.00000  Uiso   1.00
C227   C     0.59102   0.05333   0.11971   0.00000  Uiso   1.00
C228   C     0.57622   0.06104   0.11948   0.00000  Uiso   1.00
C229   C     0.55418   0.03368   0.09631   0.00000  Uiso   1.00
C230   C     0.56789   0.03221   0.09080   0.00000  Uiso   1.00
N231   N     0.61109   0.03177   0.09818   0.00000  Uiso   1.00
N232   N     0.61224   0.05338   0.14186   0.00000  Uiso   1.00
H233   H     0.59432   0.01889   0.05542   0.00000  Uiso   1.00
H234   H     0.59770   0.08257   0.18415   0.00000  Uiso   1.00
H235   H     0.54849   0.01398   0.07671   0.00000  Uiso   1.00
H236   H     0.57158   0.01152   0.06742   0.00000  Uiso   1.00
C237   C     0.72298   0.15674   0.08448   0.00000  Uiso   1.00
C238   C     0.72483   0.19171   0.15517   0.00000  Uiso   1.00
C239   C     0.71602   0.17833   0.11971   0.00000  Uiso   1.00
C240   C     0.70122   0.18604   0.11948   0.00000  Uiso   1.00
C241   C     0.67918   0.15868   0.09631   0.00000  Uiso   1.00
C242   C     0.69289   0.15721   0.09080   0.00000  Uiso   1.00
N243   N     0.73609   0.15677   0.09818   0.00000  Uiso   1.00
N244   N     0.73724   0.17838   0.14186   0.00000  Uiso   1.00
H245   H     0.71932   0.14389   0.05542   0.00000  Uiso   1.00
H246   H     0.72270   0.20757   0.18415   0.00000  Uiso   1.00
H247   H     0.67349   0.13898   0.07671   0.00000  Uiso   1.00
H248   H     0.69658   0.13652   0.06742   0.00000  Uiso   1.00
C249   C     0.59798   0.21826   0.20948   0.00000  Uiso   1.00
C250   C     0.59983   0.18329   0.03017   0.00000  Uiso   1.00
C251   C     0.59102   0.19667   0.24471   0.00000  Uiso   1.00
C252   C     0.57622   0.18896   0.24448   0.00000  Uiso   1.00
C253   C     0.55418   0.21632   0.22131   0.00000  Uiso   1.00
C254   C     0.56789   0.21779   0.21580   0.00000  Uiso   1.00
N255   N     0.61109   0.21823   0.22318   0.00000  Uiso   1.00
N256   N     0.61224   0.19662   0.01686   0.00000  Uiso   1.00
H257   H     0.59432   0.23111   0.18042   0.00000  Uiso   1.00
H258   H     0.59770   0.16743   0.05915   0.00000  Uiso   1.00
H259   H     0.54849   0.23602   0.20171   0.00000  Uiso   1.00
H260   H     0.57158   0.23848   0.19242   0.00000  Uiso   1.00
C261   C     0.72298   0.09326   0.20948   0.00000  Uiso   1.00
C262   C     0.72483   0.05829   0.03017   0.00000  Uiso   1.00
C263   C     0.71602   0.07167   0.24471   0.00000  Uiso   1.00
C264   C     0.70122   0.06396   0.24448   0.00000  Uiso   1.00
C265   C     0.67918   0.09132   0.22131   0.00000  Uiso   1.00
C266   C     0.69289   0.09279   0.21580   0.00000  Uiso   1.00
N267   N     0.73609   0.09323   0.22318   0.00000  Uiso   1.00
N268   N     0.73724   0.07162   0.01686   0.00000  Uiso   1.00
H269   H     0.71932   0.10611   0.18042   0.00000  Uiso   1.00
H270   H     0.72270   0.04243   0.05915   0.00000  Uiso   1.00
H271   H     0.67349   0.11102   0.20171   0.00000  Uiso   1.00
H272   H     0.69658   0.11348   0.19242   0.00000  Uiso   1.00
C273   C     0.65202   0.21826   0.16552   0.00000  Uiso   1.00
C274   C     0.65017   0.18329   0.09483   0.00000  Uiso   1.00
C275   C     0.65898   0.19667   0.13029   0.00000  Uiso   1.00
C276   C     0.67378   0.18896   0.13052   0.00000  Uiso   1.00
C277   C     0.69582   0.21632   0.15369   0.00000  Uiso   1.00
C278   C     0.68211   0.21779   0.15920   0.00000  Uiso   1.00
N279   N     0.63891   0.21823   0.15182   0.00000  Uiso   1.00
N280   N     0.63776   0.19662   0.10814   0.00000  Uiso   1.00
H281   H     0.65568   0.23111   0.19458   0.00000  Uiso   1.00
H282   H     0.65230   0.16743   0.06585   0.00000  Uiso   1.00
H283   H     0.70151   0.23602   0.17329   0.00000  Uiso   1.00
H284   H     0.67842   0.23848   0.18258   0.00000  Uiso   1.00
C285   C     0.52702   0.09326   0.16552   0.00000  Uiso   1.00
C286   C     0.52517   0.05829   0.09483   0.00000  Uiso   1.00
C287   C     0.53398   0.07167   0.13029   0.00000  Uiso   1.00
C288   C     0.54878   0.06396   0.13052   0.00000  Uiso   1.00
C289   C     0.57082   0.09132   0.15369   0.00000  Uiso   1.00
C290   C     0.55711   0.09279   0.15920   0.00000  Uiso   1.00
N291   N     0.51391   0.09323   0.15182   0.00000  Uiso   1.00
N292   N     0.51276   0.07162   0.10814   0.00000  Uiso   1.00
H293   H     0.53068   0.10611   0.19458   0.00000  Uiso   1.00
H294   H     0.52730   0.04243   0.06585   0.00000  Uiso   1.00
H295   H     0.57651   0.11102   0.17329   0.00000  Uiso   1.00
H296   H     0.55342   0.11348   0.18258   0.00000  Uiso   1.00
Fe297  Fe    0.62500   0.23961   0.06250   0.00000  Uiso   1.00
Fe298  Fe    0.50000   0.11461   0.06250   0.00000  Uiso   1.00
Fe299  Fe    0.62500   0.01039   0.18750   0.00000  Uiso   1.00
Fe300  Fe    0.50000   0.13539   0.18750   0.00000  Uiso   1.00
C301   C     0.90202   0.03174   0.04052   0.00000  Uiso   1.00
C302   C     0.90017   0.06671   0.21983   0.00000  Uiso   1.00
C303   C     0.90898   0.05333   0.00529   0.00000  Uiso   1.00
C304   C     0.92378   0.06104   0.00552   0.00000  Uiso   1.00
C305   C     0.94582   0.03368   0.02869   0.00000  Uiso   1.00
C306   C     0.93211   0.03221   0.03420   0.00000  Uiso   1.00
N307   N     0.88891   0.03177   0.02682   0.00000  Uiso   1.00
N308   N     0.88776   0.05338   0.23314   0.00000  Uiso   1.00
H309   H     0.90568   0.01889   0.06958   0.00000  Uiso   1.00
H310   H     0.90230   0.08257   0.19085   0.00000  Uiso   1.00
H311   H     0.95151   0.01398   0.04829   0.00000  Uiso   1.00
H312   H     0.92842   0.01152   0.05758   0.00000  Uiso   1.00
C313   C     0.77702   0.15674   0.04052   0.00000  Uiso   1.00
C314   C     0.77517   0.19171   0.21983   0.00000  Uiso   1.00
C315   C     0.78398   0.17833   0.00529   0.00000  Uiso   1.00
C316   C     0.79878   0.18604   0.00552   0.00000  Uiso   1.00
C317   C     0.82082   0.15868   0.02869   0.00000  Uiso   1.00
C318   C     0.80711   0.15721   0.03420   0.00000  Uiso   1.00
N319   N     0.76391   0.15677   0.02682   0.00000  Uiso   1.00
N320   N     0.76276   0.17838   0.23314   0.00000  Uiso   1.00
H321   H     0.78068   0.14389   0.06958   0.00000  Uiso   1.00
H322   H     0.77730   0.20757   0.19085   0.00000  Uiso   1.00
H323   H     0.82651   0.13898   0.04829   0.00000  Uiso   1.00
H324   H     0.80342   0.13652   0.05758   0.00000  Uiso   1.00
C325   C     0.84798   0.03174   0.08448   0.00000  Uiso   1.00
C326   C     0.84983   0.06671   0.15517   0.00000  Uiso   1.00
C327   C     0.84102   0.05333   0.11971   0.00000  Uiso   1.00
C328   C     0.82622   0.06104   0.11948   0.00000  Uiso   1.00
C329   C     0.80418   0.03368   0.09631   0.00000  Uiso   1.00
C330   C     0.81789   0.03221   0.09080   0.00000  Uiso   1.00
N331   N     0.86109   0.03177   0.09818   0.00000  Uiso   1.00
N332   N     0.86224   0.05338   0.14186   0.00000  Uiso   1.00
H333   H     0.84432   0.01889   0.05542   0.00000  Uiso   1.00
H334   H     0.84770   0.08257   0.18415   0.00000  Uiso   1.00
H335   H     0.79849   0.01398   0.07671   0.00000  Uiso   1.00
H336   H     0.82158   0.01152   0.06742   0.00000  Uiso   1.00
C337   C     0.97298   0.15674   0.08448   0.00000  Uiso   1.00
C338   C     0.97483   0.19171   0.15517   0.00000  Uiso   1.00
C339   C     0.96602   0.17833   0.11971   0.00000  Uiso   1.00
C340   C     0.95122   0.18604   0.11948   0.00000  Uiso   1.00
C341   C     0.92918   0.15868   0.09631   0.00000  Uiso   1.00
C342   C     0.94289   0.15721   0.09080   0.00000  Uiso   1.00
N343   N     0.98609   0.15677   0.09818   0.00000  Uiso   1.00
N344   N     0.98724   0.17838   0.14186   0.00000  Uiso   1.00
H345   H     0.96932   0.14389   0.05542   0.00000  Uiso   1.00
H346   H     0.97270   0.20757   0.18415   0.00000  Uiso   1.00
H347   H     0.92349   0.13898   0.07671   0.00000  Uiso   1.00
H348   H     0.94658   0.13652   0.06742   0.00000  Uiso   1.00
C349   C     0.84798   0.21826   0.20948   0.00000  Uiso   1.00
C350   C     0.84983   0.18329   0.03017   0.00000  Uiso   1.00
C351   C     0.84102   0.19667   0.24471   0.00000  Uiso   1.00
C352   C     0.82622   0.18896   0.24448   0.00000  Uiso   1.00
C353   C     0.80418   0.21632   0.22131   0.00000  Uiso   1.00
C354   C     0.81789   0.21779   0.21580   0.00000  Uiso   1.00
N355   N     0.86109   0.21823   0.22318   0.00000  Uiso   1.00
N356   N     0.86224   0.19662   0.01686   0.00000  Uiso   1.00
H357   H     0.84432   0.23111   0.18042   0.00000  Uiso   1.00
H358   H     0.84770   0.16743   0.05915   0.00000  Uiso   1.00
H359   H     0.79849   0.23602   0.20171   0.00000  Uiso   1.00
H360   H     0.82158   0.23848   0.19242   0.00000  Uiso   1.00
C361   C     0.97298   0.09326   0.20948   0.00000  Uiso   1.00
C362   C     0.97483   0.05829   0.03017   0.00000  Uiso   1.00
C363   C     0.96602   0.07167   0.24471   0.00000  Uiso   1.00
C364   C     0.95122   0.06396   0.24448   0.00000  Uiso   1.00
C365   C     0.92918   0.09132   0.22131   0.00000  Uiso   1.00
C366   C     0.94289   0.09279   0.21580   0.00000  Uiso   1.00
N367   N     0.98609   0.09323   0.22318   0.00000  Uiso   1.00
N368   N     0.98724   0.07162   0.01686   0.00000  Uiso   1.00
H369   H     0.96932   0.10611   0.18042   0.00000  Uiso   1.00
H370   H     0.97270   0.04243   0.05915   0.00000  Uiso   1.00
H371   H     0.92349   0.11102   0.20171   0.00000  Uiso   1.00
H372   H     0.94658   0.11348   0.19242   0.00000  Uiso   1.00
C373   C     0.90202   0.21826   0.16552   0.00000  Uiso   1.00
C374   C     0.90017   0.18329   0.09483   0.00000  Uiso   1.00
C375   C     0.90898   0.19667   0.13029   0.00000  Uiso   1.00
C376   C     0.92378   0.18896   0.13052   0.00000  Uiso   1.00
C377   C     0.94582   0.21632   0.15369   0.00000  Uiso   1.00
C378   C     0.93211   0.21779   0.15920   0.00000  Uiso   1.00
N379   N     0.88891   0.21823   0.15182   0.00000  Uiso   1.00
N380   N     0.88776   0.19662   0.10814   0.00000  Uiso   1.00
H381   H     0.90568   0.23111   0.19458   0.00000  Uiso   1.00
H382   H     0.90230   0.16743   0.06585   0.00000  Uiso   1.00
H383   H     0.95151   0.23602   0.17329   0.00000  Uiso   1.00
H384   H     0.92842   0.23848   0.18258   0.00000  Uiso   1.00
C385   C     0.77702   0.09326   0.16552   0.00000  Uiso   1.00
C386   C     0.77517   0.05829   0.09483   0.00000  Uiso   1.00
C387   C     0.78398   0.07167   0.13029   0.00000  Uiso   1.00
C388   C     0.79878   0.06396   0.13052   0.00000  Uiso   1.00
C389   C     0.82082   0.09132   0.15369   0.00000  Uiso   1.00
C390   C     0.80711   0.09279   0.15920   0.00000  Uiso   1.00
N391   N     0.76391   0.09323   0.15182   0.00000  Uiso   1.00
N392   N     0.76276   0.07162   0.10814   0.00000  Uiso   1.00
H393   H     0.78068   0.10611   0.19458   0.00000  Uiso   1.00
H394   H     0.77730   0.04243   0.06585   0.00000  Uiso   1.00
H395   H     0.82651   0.11102   0.17329   0.00000  Uiso   1.00
H396   H     0.80342   0.11348   0.18258   0.00000  Uiso   1.00
Fe397  Fe    0.87500   0.23961   0.06250   0.00000  Uiso   1.00
Fe398  Fe    0.75000   0.11461   0.06250   0.00000  Uiso   1.00
Fe399  Fe    0.87500   0.01039   0.18750   0.00000  Uiso   1.00
Fe400  Fe    0.75000   0.13539   0.18750   0.00000  Uiso   1.00
C401   C     0.15202   0.28174   0.04052   0.00000  Uiso   1.00
C402   C     0.15017   0.31671   0.21983   0.00000  Uiso   1.00
C403   C     0.15898   0.30333   0.00529   0.00000  Uiso   1.00
C404   C     0.17378   0.31104   0.00552   0.00000  Uiso   1.00
C405   C     0.19582   0.28368   0.02869   0.00000  Uiso   1.00
C406   C     0.18211   0.28221   0.03420   0.00000  Uiso   1.00
N407   N     0.13891   0.28177   0.02682   0.00000  Uiso   1.00
N408   N     0.13776   0.30338   0.23314   0.00000  Uiso   1.00
H409   H     0.15568   0.26889   0.06958   0.00000  Uiso   1.00
H410   H     0.15230   0.33257   0.19085   0.00000  Uiso   1.00
H411   H     0.20151   0.26398   0.04829   0.00000  Uiso   1.00
H412   H     0.17842   0.26152   0.05758   0.00000  Uiso   1.00
C413   C     0.02702   0.40674   0.04052   0.00000  Uiso   1.00
C414   C     0.02517   0.44171   0.21983   0.00000  Uiso   1.00
C415   C     0.03398   0.42833   0.00529   0.00000  Uiso   1.00
C416   C     0.04878   0.43604   0.00552   0.00000  Uiso   1.00
C417   C     0.07082   0.40868   0.02869   0.00000  Uiso   1.00
C418   C     0.05711   0.40721   0.03420   0.00000  Uiso   1.00
N419   N     0.01391   0.40677   0.02682   0.00000  Uiso   1.00
N420   N     0.01276   0.42838   0.23314   0.00000  Uiso   1.00
H421   H     0.03068   0.39389   0.06958   0.00000  Uiso   1.00
H422   H     0.02730   0.45757   0.19085   0.00000  Uiso   1.00
H423   H     0.07651   0.38898   0.04829   0.00000  Uiso   1.00
H424   H     0.05342   0.38652   0.05758   0.00000  Uiso   1.00
C425   C     0.09798   0.28174   0.08448   0.00000  Uiso   1.00
C426   C     0.09983   0.31671   0.15517   0.00000  Uiso   1.00
C427   C     0.09102   0.30333   0.11971   0.00000  Uiso   1.00
C428   C     0.07622   0.31104   0.11948   0.00000  Uiso   1.00
C429   C     0.05418   0.28368   0.09631   0.00000  Uiso   1.00
C430   C     0.06789   0.28221   0.09080   0.00000  Uiso   1.00
N431   N     0.11109   0.28177   0.09818   0.00000  Uiso   1.00
N432   N     0.11224   0.30338   0.14186   0.00000  Uiso   1.00
H433   H     0.09432   0.26889   0.05542   0.00000  Uiso   1.00
H434   H     0.09770   0.33257   0.18415   0.00000  Uiso   1.00
H435   H     0.04849   0.26398   0.07671   0.00000  Uiso   1.00
H436   H     0.07158   0.26152   0.06742   0.00000  Uiso   1.00
C437   C     0.22298   0.40674   0.08448   0.00000  Uiso   1.00
C438   C     0.22483   0.44171   0.15517   0.00000  Uiso   1.00
C439   C     0.21602   0.42833   0.11971   0.00000  Uiso   1.00
C440   C     0.20122   0.43604   0.11948   0.00000  Uiso   1.00
C441   C     0.17918   0.40868   0.09631   0.00000  Uiso   1.00
C442   C     0.19289   0.40721   0.09080   0.00000  Uiso   1.00
N443   N     0.23609   0.40677   0.09818   0.00000  Uiso   1.00
N444   N     0.23724   0.42838   0.14186   0.00000  Uiso   1.00
H445   H     0.21932   0.39389   0.05542   0.00000  Uiso   1.00
H446   H     0.22270   0.45757   0.18415   0.00000  Uiso   1.00
H447   H     0.17349   0.38898   0.07671   0.00000  Uiso   1.00
H448   H     0.19658   0.38652   0.06742   0.00000  Uiso   1.00
C449   C     0.09798   0.46826   0.20948   0.00000  Uiso   1.00
C450   C     0.09983   0.43329   0.03017   0.00000  Uiso   1.00
C451   C     0.09102   0.44667   0.24471   0.00000  Uiso   1.00
C452   C     0.07622   0.43896   0.24448   0.00000  Uiso   1.00
C453   C     0.05418   0.46632   0.22131   0.00000  Uiso   1.00
C454   C     0.06789   0.46779   0.21580   0.00000  Uiso   1.00
N455   N     0.11109   0.46823   0.22318   0.00000  Uiso   1.00
N456   N     0.11224   0.44662   0.01686   0.00000  Uiso   1.00
H457   H     0.09432   0.48111   0.18042   0.00000  Uiso   1.00
H458   H     0.09770   0.41743   0.05915   0.00000  Uiso   1.00
H459   H     0.04849   0.48602   0.20171   0.00000  Uiso   1.00
H460   H     0.07158   0.48848   0.19242   0.00000  Uiso   1.00
C461   C     0.22298   0.34326   0.20948   0.00000  Uiso   1.00
C462   C     0.22483   0.30829   0.03017   0.00000  Uiso   1.00
C463   C     0.21602   0.32167   0.24471   0.00000  Uiso   1.00
C464   C     0.20122   0.31396   0.24448   0.00000  Uiso   1.00
C465   C     0.17918   0.34132   0.22131   0.00000  Uiso   1.00
C466   C     0.19289   0.34279   0.21580   0.00000  Uiso   1.00
N467   N     0.23609   0.34323   0.22318   0.00000  Uiso   1.00
N468   N     0.23724   0.32162   0.01686   0.00000  Uiso   1.00
H469   H     0.21932   0.35611   0.18042   0.00000  Uiso   1.00
H470   H     0.22270   0.29243   0.05915   0.00000  Uiso   1.00
H471   H     0.17349   0.36102   0.20171   0.00000  Uiso   1.00
H472   H     0.19658   0.36348   0.19242   0.00000  Uiso   1.00
C473   C     0.15202   0.46826   0.16552   0.00000  Uiso   1.00
C474   C     0.15017   0.43329   0.09483   0.00000  Uiso   1.00
C475   C     0.15898   0.44667   0.13029   0.00000  Uiso   1.00
C476   C     0.17378   0.43896   0.13052   0.00000  Uiso   1.00
C477   C     0.19582   0.46632   0.15369   0.00000  Uiso   1.00
C478   C     0.18211   0.46779   0.15920   0.00000  Uiso   1.00
N479   N     0.13891   0.46823   0.15182   0.00000  Uiso   1.00
N480   N     0.13776   0.44662   0.10814   0.00000  Uiso   1.00
H481   H     0.15568   0.48111   0.19458   0.00000  Uiso   1.00
H482   H     0.15230   0.41743   0.06585   0.00000  Uiso   1.00
H483   H     0.20151   0.48602   0.17329   0.00000  Uiso   1.00
H484   H     0.17842   0.48848   0.18258   0.00000  Uiso   1.00
C485   C     0.02702   0.34326   0.16552   0.00000  Uiso   1.00
C486   C     0.02517   0.30829   0.09483   0.00000  Uiso   1.00
C487   C     0.03398   0.32167   0.13029   0.00000  Uiso   1.00
C488   C     0.04878   0.31396   0.13052   0.00000  Uiso   1.00
C489   C     0.07082   0.34132   0.15369   0.00000  Uiso   1.00
C490   C     0.05711   0.34279   0.15920   0.00000  Uiso   1.00
N491   N     0.01391   0.34323   0.15182   0.00000  Uiso   1.00
N492   N     0.01276   0.32162   0.10814   0.00000  Uiso   1.00
H493   H     0.03068   0.35611   0.19458   0.00000  Uiso   1.00
H494   H     0.02730   0.29243   0.06585   0.00000  Uiso   1.00
H495   H     0.07651   0.36102   0.17329   0.00000  Uiso   1.00
H496   H     0.05342   0.36348   0.18258   0.00000  Uiso   1.00
Fe497  Fe    0.12500   0.48961   0.06250   0.00000  Uiso   1.00
Fe498  Fe    0.00000   0.36461   0.06250   0.00000  Uiso   1.00
Fe499  Fe    0.12500   0.26039   0.18750   0.00000  Uiso   1.00
Fe500  Fe   -0.00000   0.38539   0.18750   0.00000  Uiso   1.00
C501   C     0.40202   0.28174   0.04052   0.00000  Uiso   1.00
C502   C     0.40017   0.31671   0.21983   0.00000  Uiso   1.00
C503   C     0.40898   0.30333   0.00529   0.00000  Uiso   1.00
C504   C     0.42378   0.31104   0.00552   0.00000  Uiso   1.00
C505   C     0.44582   0.28368   0.02869   0.00000  Uiso   1.00
C506   C     0.43211   0.28221   0.03420   0.00000  Uiso   1.00
N507   N     0.38891   0.28177   0.02682   0.00000  Uiso   1.00
N508   N     0.38776   0.30338   0.23314   0.00000  Uiso   1.00
H509   H     0.40568   0.26889   0.06958   0.00000  Uiso   1.00
H510   H     0.40230   0.33257   0.19085   0.00000  Uiso   1.00
H511   H     0.45151   0.26398   0.04829   0.00000  Uiso   1.00
H512   H     0.42842   0.26152   0.05758   0.00000  Uiso   1.00
C513   C     0.27702   0.40674   0.04052   0.00000  Uiso   1.00
C514   C     0.27517   0.44171   0.21983   0.00000  Uiso   1.00
C515   C     0.28398   0.42833   0.00529   0.00000  Uiso   1.00
C516   C     0.29878   0.43604   0.00552   0.00000  Uiso   1.00
C517   C     0.32082   0.40868   0.02869   0.00000  Uiso   1.00
C518   C     0.30711   0.40721   0.03420   0.00000  Uiso   1.00
N519   N     0.26391   0.40677   0.02682   0.00000  Uiso   1.00
N520   N     0.26276   0.42838   0.23314   0.00000  Uiso   1.00
H521   H     0.28068   0.39389   0.06958   0.00000  Uiso   1.00
H522   H     0.27730   0.45757   0.19085   0.00000  Uiso   1.00
H523   H     0.32651   0.38898   0.04829   0.00000  Uiso   1.00
H524   H     0.30342   0.38652   0.05758   0.00000  Uiso   1.00
C525   C     0.34798   0.28174   0.08448   0.00000  Uiso   1.00
C526   C     0.34983   0.31671   0.15517   0.00000  Uiso   1.00
C527   C     0.34102   0.30333   0.11971   0.00000  Uiso   1.00
C528   C     0.32622   0.31104   0.11948   0.00000  Uiso   1.00
C529   C     0.30418   0.28368   0.09631   0.00000  Uiso   1.00
C530   C     0.31789   0.28221   0.09080   0.00000  Uiso   1.00
N531   N     0.36109   0.28177   0.09818   0.00000  Uiso   1.00
N532   N     0.36224   0.30338   0.14186   0.00000  Uiso   1.00
H533   H     0.34432   0.26889   0.05542   0.00000  Uiso   1.00
H534   H     0.34770   0.33257   0.18415   0.00000  Uiso   1.00
H535   H     0.29849   0.26398   0.07671   0.00000  Uiso   1.00
H536   H     0.32158   0.26152   0.06742   0.00000  Uiso   1.00
C537   C     0.47298   0.40674   0.08448   0.00000  Uiso   1.00
C538   C     0.47483   0.44171   0.15517   0.00000  Uiso   1.00
C539   C     0.46602   0.42833   0.11971   0.00000  Uiso   1.00
C540   C     0.45122   0.43604   0.11948   0.00000  Uiso   1.00
C541   C     0.42918   0.40868   0.09631   0.00000  Uiso   1.00
C542   C     0.44289   0.40721   0.09080   0.00000  Uiso   1.00
N543   N     0.48609   0.40677   0.09818   0.00000  Uiso   1.00
N544   N     0.48724   0.42838   0.14186   0.00000  Uiso   1.00
H545   H     0.46932   0.39389   0.05542   0.00000  Uiso   1.00
H546   H     0.47270   0.45757   0.18415   0.00000  Uiso   1.00
H547   H     0.42349   0.38898   0.07671   0.00000  Uiso   1.00
H548   H     0.44658   0.38652   0.06742   0.00000  Uiso   1.00
C549   C     0.34798   0.46826   0.20948   0.00000  Uiso   1.00
C550   C     0.34983   0.43329   0.03017   0.00000  Uiso   1.00
C551   C     0.34102   0.44667   0.24471   0.00000  Uiso   1.00
C552   C     0.32622   0.43896   0.24448   0.00000  Uiso   1.00
C553   C     0.30418   0.46632   0.22131   0.00000  Uiso   1.00
C554   C     0.31789   0.46779   0.21580   0.00000  Uiso   1.00
N555   N     0.36109   0.46823   0.22318   0.00000  Uiso   1.00
N556   N     0.36224   0.44662   0.01686   0.00000  Uiso   1.00
H557   H     0.34432   0.48111   0.18042   0.00000  Uiso   1.00
H558   H     0.34770   0.41743   0.05915   0.00000  Uiso   1.00
H559   H     0.29849   0.48602   0.20171   0.00000  Uiso   1.00
H560   H     0.32158   0.48848   0.19242   0.00000  Uiso   1.00
C561   C     0.47298   0.34326   0.20948   0.00000  Uiso   1.00
C562   C     0.47483   0.30829   0.03017   0.00000  Uiso   1.00
C563   C     0.46602   0.32167   0.24471   0.00000  Uiso   1.00
C564   C     0.45122   0.31396   0.24448   0.00000  Uiso   1.00
C565   C     0.42918   0.34132   0.22131   0.00000  Uiso   1.00
C566   C     0.44289   0.34279   0.21580   0.00000  Uiso   1.00
N567   N     0.48609   0.34323   0.22318   0.00000  Uiso   1.00
N568   N     0.48724   0.32162   0.01686   0.00000  Uiso   1.00
H569   H     0.46932   0.35611   0.18042   0.00000  Uiso   1.00
H570   H     0.47270   0.29243   0.05915   0.00000  Uiso   1.00
H571   H     0.42349   0.36102   0.20171   0.00000  Uiso   1.00
H572   H     0.44658   0.36348   0.19242   0.00000  Uiso   1.00
C573   C     0.40202   0.46826   0.16552   0.00000  Uiso   1.00
C574   C     0.40017   0.43329   0.09483   0.00000  Uiso   1.00
C575   C     0.40898   0.44667   0.13029   0.00000  Uiso   1.00
C576   C     0.42378   0.43896   0.13052   0.00000  Uiso   1.00
C577   C     0.44582   0.46632   0.15369   0.00000  Uiso   1.00
C578   C     0.43211   0.46779   0.15920   0.00000  Uiso   1.00
N579   N     0.38891   0.46823   0.15182   0.00000  Uiso   1.00
N580   N     0.38776   0.44662   0.10814   0.00000  Uiso   1.00
H581   H     0.40568   0.48111   0.19458   0.00000  Uiso   1.00
H582   H     0.40230   0.41743   0.06585   0.00000  Uiso   1.00
H583   H     0.45151   0.48602   0.17329   0.00000  Uiso   1.00
H584   H     0.42842   0.48848   0.18258   0.00000  Uiso   1.00
C585   C     0.27702   0.34326   0.16552   0.00000  Uiso   1.00
C586   C     0.27517   0.30829   0.09483   0.00000  Uiso   1.00
C587   C     0.28398   0.32167   0.13029   0.00000  Uiso   1.00
C588   C     0.29878   0.31396   0.13052   0.00000  Uiso   1.00
C589   C     0.32082   0.34132   0.15369   0.00000  Uiso   1.00
C590   C     0.30711   0.34279   0.15920   0.00000  Uiso   1.00
N591   N     0.26391   0.34323   0.15182   0.00000  Uiso   1.00
N592   N     0.26276   0.32162   0.10814   0.00000  Uiso   1.00
H593   H     0.28068   0.35611   0.19458   0.00000  Uiso   1.00
H594   H     0.27730   0.29243   0.06585   0.00000  Uiso   1.00
H595   H     0.32651   0.36102   0.17329   0.00000  Uiso   1.00
H596   H     0.30342   0.36348   0.18258   0.00000  Uiso   1.00
Fe597  Fe    0.37500   0.48961   0.06250   0.00000  Uiso   1.00
Fe598  Fe    0.25000   0.36461   0.06250   0.00000  Uiso   1.00
Fe599  Fe    0.37500   0.26039   0.18750   0.00000  Uiso   1.00
Fe600  Fe    0.25000   0.38539   0.18750   0.00000  Uiso   1.00
C601   C     0.65202   0.28174   0.04052   0.00000  Uiso   1.00
C602   C     0.65017   0.31671   0.21983   0.00000  Uiso   1.00
C603   C     0.65898   0.30333   0.00529   0.00000  Uiso   1.00
C604   C     0.67378   0.31104   0.00552   0.00000  Uiso   1.00
C605   C     0.69582   0.28368   0.02869   0.00000  Uiso   1.00
C606   C     0.68211   0.28221   0.03420   0.00000  Uiso   1.00
N607   N     0.63891   0.28177   0.02682   0.00000  Uiso   1.00
N608   N     0.63776   0.30338   0.23314   0.00000  Uiso   1.00
H609   H     0.65568   0.26889   0.06958   0.00000  Uiso   1.00
H610   H     0.65230   0.33257   0.19085   0.00000  Uiso   1.00
H611   H     0.70151   0.26398   0.04829   0.00000  Uiso   1.00
H612   H     0.67842   0.26152   0.05758   0.00000  Uiso   1.00
C613   C     0.52702   0.40674   0.04052   0.00000  Uiso   1.00
C614   C     0.52517   0.44171   0.21983   0.00000  Uiso   1.00
C615   C     0.53398   0.42833   0.00529   0.00000  Uiso   1.00
C616   C     0.54878   0.43604   0.00552   0.00000  Uiso   1.00
C617   C     0.57082   0.40868   0.02869   0.00000  Uiso   1.00
C618   C     0.55711   0.40721   0.03420   0.00000  Uiso   1.00
N619   N     0.51391   0.40677   0.02682   0.00000  Uiso   1.00
N620   N     0.51276   0.42838   0.23314   0.00000  Uiso   1.00
H621   H     0.53068   0.39389   0.06958   0.00000  Uiso   1.00
H622   H     0.52730   0.45757   0.19085   0.00000  Uiso   1.00
H623   H     0.57651   0.38898   0.04829   0.00000  Uiso   1.00
H624   H     0.55342   0.38652   0.05758   0.00000  Uiso   1.00
C625   C     0.59798   0.28174   0.08448   0.00000  Uiso   1.00
C626   C     0.59983   0.31671   0.15517   0.00000  Uiso   1.00
C627   C     0.59102   0.30333   0.11971   0.00000  Uiso   1.00
C628   C     0.57622   0.31104   0.11948   0.00000  Uiso   1.00
C629   C     0.55418   0.28368   0.09631   0.00000  Uiso   1.00
C630   C     0.56789   0.28221   0.09080   0.00000  Uiso   1.00
N631   N     0.61109   0.28177   0.09818   0.00000  Uiso   1.00
N632   N     0.61224   0.30338   0.14186   0.00000  Uiso   1.00
H633   H     0.59432   0.26889   0.05542   0.00000  Uiso   1.00
H634   H     0.59770   0.33257   0.18415   0.00000  Uiso   1.00
H635   H     0.54849   0.26398   0.07671   0.00000  Uiso   1.00
H636   H     0.57158   0.26152   0.06742   0.00000  Uiso   1.00
C637   C     0.72298   0.40674   0.08448   0.00000  Uiso   1.00
C638   C     0.72483   0.44171   0.15517   0.00000  Uiso   1.00
C639   C     0.71602   0.42833   0.11971   0.00000  Uiso   1.00
C640   C     0.70122   0.43604   0.11948   0.00000  Uiso   1.00
C641   C     0.67918   0.40868   0.09631   0.00000  Uiso   1.00
C642   C     0.69289   0.40721   0.09080   0.00000  Uiso   1.00
N643   N     0.73609   0.40677   0.09818   0.00000  Uiso   1.00
N644   N     0.73724   0.42838   0.14186   0.00000  Uiso   1.00
H645   H     0.71932   0.39389   0.05542   0.00000  Uiso   1.00
H646   H     0.72270   0.45757   0.18415   0.00000  Uiso   1.00
H647   H     0.67349   0.38898   0.07671   0.00000  Uiso   1.00
H648   H     0.69658   0.38652   0.06742   0.00000  Uiso   1.00
C649   C     0.59798   0.46826   0.20948   0.00000  Uiso   1.00
C650   C     0.59983   0.43329   0.03017   0.00000  Uiso   1.00
C651   C     0.59102   0.44667   0.24471   0.00000  Uiso   1.00
C652   C     0.57622   0.43896   0.24448   0.00000  Uiso   1.00
C653   C     0.55418   0.46632   0.22131   0.00000  Uiso   1.00
C654   C     0.56789   0.46779   0.21580   0.00000  Uiso   1.00
N655   N     0.61109   0.46823   0.22318   0.00000  Uiso   1.00
N656   N     0.61224   0.44662   0.01686   0.00000  Uiso   1.00
H657   H     0.59432   0.48111   0.18042   0.00000  Uiso   1.00
H658   H     0.59770   0.41743   0.05915   0.00000  Uiso   1.00
H659   H     0.54849   0.48602   0.20171   0.00000  Uiso   1.00
H660   H     0.57158   0.48848   0.19242   0.00000  Uiso   1.00
C661   C     0.72298   0.34326   0.20948   0.00000  Uiso   1.00
C662   C     0.72483   0.30829   0.03017   0.00000  Uiso   1.00
C663   C     0.71602   0.32167   0.24471   0.00000  Uiso   1.00
C664   C     0.70122   0.31396   0.24448   0.00000  Uiso   1.00
C665   C     0.67918   0.34132   0.22131   0.00000  Uiso   1.00
C666   C     0.69289   0.34279   0.21580   0.00000  Uiso   1.00
N667   N     0.73609   0.34323   0.22318   0.00000  Uiso   1.00
N668   N     0.73724   0.32162   0.01686   0.00000  Uiso   1.00
H669   H     0.71932   0.35611   0.18042   0.00000  Uiso   1.00
H670   H     0.72270   0.29243   0.05915   0.00000  Uiso   1.00
H671   H     0.67349   0.36102   0.20171   0.00000  Uiso   1.00
H672   H     0.69658   0.36348   0.19242   0.00000  Uiso   1.00
C673   C     0.65202   0.46826   0.16552   0.00000  Uiso   1.00
C674   C     0.65017   0.43329   0.09483   0.00000  Uiso   1.00
C675   C     0.65898   0.44667   0.13029   0.00000  Uiso   1.00
C676   C     0.67378   0.43896   0.13052   0.00000  Uiso   1.00
C677   C     0.69582   0.46632   0.15369   0.00000  Uiso   1.00
C678   C     0.68211   0.46779   0.15920   0.00000  Uiso   1.00
N679   N     0.63891   0.46823   0.15182   0.00000  Uiso   1.00
N680   N     0.63776   0.44662   0.10814   0.00000  Uiso   1.00
H681   H     0.65568   0.48111   0.19458   0.00000  Uiso   1.00
H682   H     0.65230   0.41743   0.06585   0.00000  Uiso   1.00
H683   H     0.70151   0.48602   0.17329   0.00000  Uiso   1.00
H684   H     0.67842   0.48848   0.18258   0.00000  Uiso   1.00
C685   C     0.52702   0.34326   0.16552   0.00000  Uiso   1.00
C686   C     0.52517   0.30829   0.09483   0.00000  Uiso   1.00
C687   C     0.53398   0.32167   0.13029   0.00000  Uiso   1.00
C688   C     0.54878   0.31396   0.13052   0.00000  Uiso   1.00
C689   C     0.57082   0.34132   0.15369   0.00000  Uiso   1.00
C690   C     0.55711   0.34279   0.15920   0.00000  Uiso   1.00
N691   N     0.51391   0.34323   0.15182   0.00000  Uiso   1.00
N692   N     0.51276   0.32162   0.10814   0.00000  Uiso   1.00
H693   H     0.53068   0.35611   0.19458   0.00000  Uiso   1.00
H694   H     0.52730   0.29243   0.06585   0.00000  Uiso   1.00
H695   H     0.57651   0.36102   0.17329   0.00000  Uiso   1.00
H696   H     0.55342   0.36348   0.18258   0.00000  Uiso   1.00
Fe697  Fe    0.62500   0.48961   0.06250   0.00000  Uiso   1.00
Fe698  Fe    0.50000   0.36461   0.06250   0.00000  Uiso   1.00
Fe699  Fe    0.62500   0.26039   0.18750   0.00000  Uiso   1.00
Fe700  Fe    0.50000   0.38539   0.18750   0.00000  Uiso   1.00
C701   C     0.90202   0.28174   0.04052   0.00000  Uiso   1.00
C702   C     0.90017   0.31671   0.21983   0.00000  Uiso   1.00
C703   C     0.90898   0.30333   0.00529   0.00000  Uiso   1.00
C704   C     0.92378   0.31104   0.00552   0.00000  Uiso   1.00
C705   C     0.94582   0.28368   0.02869   0.00000  Uiso   1.00
C706   C     0.93211   0.28221   0.03420   0.00000  Uiso   1.00
N707   N     0.88891   0.28177   0.02682   0.00000  Uiso   1.00
N708   N     0.88776   0.30338   0.23314   0.00000  Uiso   1.00
H709   H     0.90568   0.26889   0.06958   0.00000  Uiso   1.00
H710   H     0.90230   0.33257   0.19085   0.00000  Uiso   1.00
H711   H     0.95151   0.26398   0.04829   0.00000  Uiso   1.00
H712   H     0.92842   0.26152   0.05758   0.00000  Uiso   1.00
C713   C     0.77702   0.40674   0.04052   0.00000  Uiso   1.00
C714   C     0.77517   0.44171   0.21983   0.00000  Uiso   1.00
C715   C     0.78398   0.42833   0.00529   0.00000  Uiso   1.00
C716   C     0.79878   0.43604   0.00552   0.00000  Uiso   1.00
C717   C     0.82082   0.40868   0.02869   0.00000  Uiso   1.00
C718   C     0.80711   0.40721   0.03420   0.00000  Uiso   1.00
N719   N     0.76391   0.40677   0.02682   0.00000  Uiso   1.00
N720   N     0.76276   0.42838   0.23314   0.00000  Uiso   1.00
H721   H     0.78068   0.39389   0.06958   0.00000  Uiso   1.00
H722   H     0.77730   0.45757   0.19085   0.00000  Uiso   1.00
H723   H     0.82651   0.38898   0.04829   0.00000  Uiso   1.00
H724   H     0.80342   0.38652   0.05758   0.00000  Uiso   1.00
C725   C     0.84798   0.28174   0.08448   0.00000  Uiso   1.00
C726   C     0.84983   0.31671   0.15517   0.00000  Uiso   1.00
C727   C     0.84102   0.30333   0.11971   0.00000  Uiso   1.00
C728   C     0.82622   0.31104   0.11948   0.00000  Uiso   1.00
C729   C     0.80418   0.28368   0.09631   0.00000  Uiso   1.00
C730   C     0.81789   0.28221   0.09080   0.00000  Uiso   1.00
N731   N     0.86109   0.28177   0.09818   0.00000  Uiso   1.00
N732   N     0.86224   0.30338   0.14186   0.00000  Uiso   1.00
H733   H     0.84432   0.26889   0.05542   0.00000  Uiso   1.00
H734   H     0.84770   0.33257   0.18415   0.00000  Uiso   1.00
H735   H     0.79849   0.26398   0.07671   0.00000  Uiso   1.00
H736   H     0.82158   0.26152   0.06742   0.00000  Uiso   1.00
C737   C     0.97298   0.40674   0.08448   0.00000  Uiso   1.00
C738   C     0.97483   0.44171   0.15517   0.00000  Uiso   1.00
C739   C     0.96602   0.42833   0.11971   0.00000  Uiso   1.00
C740   C     0.95122   0.43604   0.11948   0.00000  Uiso   1.00
C741   C     0.92918   0.40868   0.09631   0.00000  Uiso   1.00
C742   C     0.94289   0.40721   0.09080   0.00000  Uiso   1.00
N743   N     0.98609   0.40677   0.09818   0.00000  Uiso   1.00
N744   N     0.98724   0.42838   0.14186   0.00000  Uiso   1.00
H745   H     0.96932   0.39389   0.05542   0.00000  Uiso   1.00
H746   H     0.97270   0.45757   0.18415   0.00000  Uiso   1.00
H747   H     0.92349   0.38898   0.07671   0.00000  Uiso   1.00
H748   H     0.94658   0.38652   0.06742   0.00000  Uiso   1.00
C749   C     0.84798   0.46826   0.20948   0.00000  Uiso   1.00
C750   C     0.84983   0.43329   0.03017   0.00000  Uiso   1.00
C751   C     0.84102   0.44667   0.24471   0.00000  Uiso   1.00
C752   C     0.82622   0.43896   0.24448   0.00000  Uiso   1.00
C753   C     0.80418   0.46632   0.22131   0.00000  Uiso   1.00
C754   C     0.81789   0.46779   0.21580   0.00000  Uiso   1.00
N755   N     0.86109   0.46823   0.22318   0.00000  Uiso   1.00
N756   N     0.86224   0.44662   0.01686   0.00000  Uiso   1.00
H757   H     0.84432   0.48111   0.18042   0.00000  Uiso   1.00
H758   H     0.84770   0.41743   0.05915   0.00000  Uiso   1.00
H759   H     0.79849   0.48602   0.20171   0.00000  Uiso   1.00
H760   H     0.82158   0.48848   0.19242   0.00000  Uiso   1.00
C761   C     0.97298   0.34326   0.20948   0.00000  Uiso   1.00
C762   C     0.97483   0.30829   0.03017   0.00000  Uiso   1.00
C763   C     0.96602   0.32167   0.24471   0.00000  Uiso   1.00
C764   C     0.95122   0.31396   0.24448   0.00000  Uiso   1.00
C765   C     0.92918   0.34132   0.22131   0.00000  Uiso   1.00
C766   C     0.94289   0.34279   0.21580   0.00000  Uiso   1.00
N767   N     0.98609   0.34323   0.22318   0.00000  Uiso   1.00
N768   N     0.98724   0.32162   0.01686   0.00000  Uiso   1.00
H769   H     0.96932   0.35611   0.18042   0.00000  Uiso   1.00
H770   H     0.97270   0.29243   0.05915   0.00000  Uiso   1.00
H771   H     0.92349   0.36102   0.20171   0.00000  Uiso   1.00
H772   H     0.94658   0.36348   0.19242   0.00000  Uiso   1.00
C773   C     0.90202   0.46826   0.16552   0.00000  Uiso   1.00
C774   C     0.90017   0.43329   0.09483   0.00000  Uiso   1.00
C775   C     0.90898   0.44667   0.13029   0.00000  Uiso   1.00
C776   C     0.92378   0.43896   0.13052   0.00000  Uiso   1.00
C777   C     0.94582   0.46632   0.15369   0.00000  Uiso   1.00
C778   C     0.93211   0.46779   0.15920   0.00000  Uiso   1.00
N779   N     0.88891   0.46823   0.15182   0.00000  Uiso   1.00
N780   N     0.88776   0.44662   0.10814   0.00000  Uiso   1.00
H781   H     0.90568   0.48111   0.19458   0.00000  Uiso   1.00
H782   H     0.90230   0.41743   0.06585   0.00000  Uiso   1.00
H783   H     0.95151   0.48602   0.17329   0.00000  Uiso   1.00
H784   H     0.92842   0.48848   0.18258   0.00000  Uiso   1.00
C785   C     0.77702   0.34326   0.16552   0.00000  Uiso   1.00
C786   C     0.77517   0.30829   0.09483   0.00000  Uiso   1.00
C787   C     0.78398   0.32167   0.13029   0.00000  Uiso   1.00
C788   C     0.79878   0.31396   0.13052   0.00000  Uiso   1.00
C789   C     0.82082   0.34132   0.15369   0.00000  Uiso   1.00
C790   C     0.80711   0.34279   0.15920   0.00000  Uiso   1.00
N791   N     0.76391   0.34323   0.15182   0.00000  Uiso   1.00
N792   N     0.76276   0.32162   0.10814   0.00000  Uiso   1.00
H793   H     0.78068   0.35611   0.19458   0.00000  Uiso   1.00
H794   H     0.77730   0.29243   0.06585   0.00000  Uiso   1.00
H795   H     0.82651   0.36102   0.17329   0.00000  Uiso   1.00
H796   H     0.80342   0.36348   0.18258   0.00000  Uiso   1.00
Fe797  Fe    0.87500   0.48961   0.06250   0.00000  Uiso   1.00
Fe798  Fe    0.75000   0.36461   0.06250   0.00000  Uiso   1.00
Fe799  Fe    0.87500   0.26039   0.18750   0.00000  Uiso   1.00
Fe800  Fe    0.75000   0.38539   0.18750   0.00000  Uiso   1.00
C801   C     0.15202   0.53174   0.04052   0.00000  Uiso   1.00
C802   C     0.15017   0.56671   0.21983   0.00000  Uiso   1.00
C803   C     0.15898   0.55333   0.00529   0.00000  Uiso   1.00
C804   C     0.17378   0.56104   0.00552   0.00000  Uiso   1.00
C805   C     0.19582   0.53368   0.02869   0.00000  Uiso   1.00
C806   C     0.18211   0.53221   0.03420   0.00000  Uiso   1.00
N807   N     0.13891   0.53177   0.02682   0.00000  Uiso   1.00
N808   N     0.13776   0.55338   0.23314   0.00000  Uiso   1.00
H809   H     0.15568   0.51889   0.06958   0.00000  Uiso   1.00
H810   H     0.15230   0.58257   0.19085   0.00000  Uiso   1.00
H811   H     0.20151   0.51398   0.04829   0.00000  Uiso   1.00
H812   H     0.17842   0.51152   0.05758   0.00000  Uiso   1.00
C813   C     0.02702   0.65674   0.04052   0.00000  Uiso   1.00
C814   C     0.02517   0.69171   0.21983   0.00000  Uiso   1.00
C815   C     0.03398   0.67833   0.00529   0.00000  Uiso   1.00
C816   C     0.04878   0.68604   0.00552   0.00000  Uiso   1.00
C817   C     0.07082   0.65868   0.02869   0.00000  Uiso   1.00
C818   C     0.05711   0.65721   0.03420   0.00000  Uiso   1.00
N819   N     0.01391   0.65677   0.02682   0.00000  Uiso   1.00
N820   N     0.01276   0.67838   0.23314   0.00000  Uiso   1.00
H821   H     0.03068   0.64389   0.06958   0.00000  Uiso   1.00
H822   H     0.02730   0.70757   0.19085   0.00000  Uiso   1.00
H823   H     0.07651   0.63898   0.04829   0.00000  Uiso   1.00
H824   H     0.05342   0.63652   0.05758   0.00000  Uiso   1.00
C825   C     0.09798   0.53174   0.08448   0.00000  Uiso   1.00
C826   C     0.09983   0.56671   0.15517   0.00000  Uiso   1.00
C827   C     0.09102   0.55333   0.11971   0.00000  Uiso   1.00
C828   C     0.07622   0.56104   0.11948   0.00000  Uiso   1.00
C829   C     0.05418   0.53368   0.09631   0.00000  Uiso   1.00
C830   C     0.06789   0.53221   0.09080   0.00000  Uiso   1.00
N831   N     0.11109   0.53177   0.09818   0.00000  Uiso   1.00
N832   N     0.11224   0.55338   0.14186   0.00000  Uiso   1.00
H833   H     0.09432   0.51889   0.05542   0.00000  Uiso   1.00
H834   H     0.09770   0.58257   0.18415   0.00000  Uiso   1.00
H835   H     0.04849   0.51398   0.07671   0.00000  Uiso   1.00
H836   H     0.07158   0.51152   0.06742   0.00000  Uiso   1.00
C837   C     0.22298   0.65674   0.08448   0.00000  Uiso   1.00
C838   C     0.22483   0.69171   0.15517   0.00000  Uiso   1.00
C839   C     0.21602   0.67833   0.11971   0.00000  Uiso   1.00
C840   C     0.20122   0.68604   0.11948   0.00000  Uiso   1.00
C841   C     0.17918   0.65868   0.09631   0.00000  Uiso   1.00
C842   C     0.19289   0.65721   0.09080   0.00000  Uiso   1.00
N843   N     0.23609   0.65677   0.09818   0.00000  Uiso   1.00
N844   N     0.23724   0.67838   0.14186   0.00000  Uiso   1.00
H845   H     0.21932   0.64389   0.05542   0.00000  Uiso   1.00
H846   H     0.22270   0.70757   0.18415   0.00000  Uiso   1.00
H847   H     0.17349   0.63898   0.07671   0.00000  Uiso   1.00
H848   H     0.19658   0.63652   0.06742   0.00000  Uiso   1.00
C849   C     0.09798   0.71826   0.20948   0.00000  Uiso   1.00
C850   C     0.09983   0.68329   0.03017   0.00000  Uiso   1.00
C851   C     0.09102   0.69667   0.24471   0.00000  Uiso   1.00
C852   C     0.07622   0.68896   0.24448   0.00000  Uiso   1.00
C853   C     0.05418   0.71632   0.22131   0.00000  Uiso   1.00
C854   C     0.06789   0.71779   0.21580   0.00000  Uiso   1.00
N855   N     0.11109   0.71823   0.22318   0.00000  Uiso   1.00
N856   N     0.11224   0.69662   0.01686   0.00000  Uiso   1.00
H857   H     0.09432   0.73111   0.18042   0.00000  Uiso   1.00
H858   H     0.09770   0.66743   0.05915   0.00000  Uiso   1.00
H859   H     0.04849   0.73602   0.20171   0.00000  Uiso   1.00
H860   H     0.07158   0.73848   0.19242   0.00000  Uiso   1.00
C861   C     0.22298   0.59326   0.20948   0.00000  Uiso   1.00
C862   C     0.22483   0.55829   0.03017   0.00000  Uiso   1.00
C863   C     0.21602   0.57167   0.24471   0.00000  Uiso   1.00
C864   C     0.20122   0.56396   0.24448   0.00000  Uiso   1.00
C865   C     0.17918   0.59132   0.22131   0.00000  Uiso   1.00
C866   C     0.19289   0.59279   0.21580   0.00000  Uiso   1.00
N867   N     0.23609   0.59323   0.22318   0.00000  Uiso   1.00
N868   N     0.23724   0.57162   0.01686   0.00000  Uiso   1.00
H869   H     0.21932   0.60611   0.18042   0.00000  Uiso   1.00
H870   H     0.22270   0.54243   0.05915   0.00000  Uiso   1.00
H871   H     0.17349   0.61102   0.20171   0.00000  Uiso   1.00
H872   H     0.19658   0.61348   0.19242   0.00000  Uiso   1.00
C873   C     0.15202   0.71826   0.16552   0.00000  Uiso   1.00
C874   C     0.15017   0.68329   0.09483   0.00000  Uiso   1.00
C875   C     0.15898   0.69667   0.13029   0.00000  Uiso   1.00
C876   C     0.17378   0.68896   0.13052   0.00000  Uiso   1.00
C877   C     0.19582   0.71632   0.15369   0.00000  Uiso   1.00
C878   C     0.18211   0.71779   0.15920   0.00000  Uiso   1.00
N879   N     0.13891   0.71823   0.15182   0.00000  Uiso   1.00
N880   N     0.13776   0.69662   0.10814   0.00000  Uiso   1.00
H881   H     0.15568   0.73111   0.19458   0.00000  Uiso   1.00
H882   H     0.15230   0.66743   0.06585   0.00000  Uiso   1.00
H883   H     0.20151   0.73602   0.17329   0.00000  Uiso   1.00
H884   H     0.17842   0.73848   0.18258   0.00000  Uiso   1.00
C885   C     0.02702   0.59326   0.16552   0.00000  Uiso   1.00
C886   C     0.02517   0.55829   0.09483   0.00000  Uiso   1.00
C887   C     0.03398   0.57167   0.13029   0.00000  Uiso   1.00
C888   C     0.04878   0.56396   0.13052   0.00000  Uiso   1.00
C889   C     0.07082   0.59132   0.15369   0.00000  Uiso   1.00
C890   C     0.05711   0.59279   0.15920   0.00000  Uiso   1.00
N891   N     0.01391   0.59323   0.15182   0.00000  Uiso   1.00
N892   N     0.01276   0.57162   0.10814   0.00000  Uiso   1.00
H893   H     0.03068   0.60611   0.19458   0.00000  Uiso   1.00
H894   H     0.02730   0.54243   0.06585   0.00000  Uiso   1.00
H895   H     0.07651   0.61102   0.17329   0.00000  Uiso   1.00
H896   H     0.05342   0.61348   0.18258   0.00000  Uiso   1.00
Fe897  Fe    0.12500   0.73961   0.06250   0.00000  Uiso   1.00
Fe898  Fe    0.00000   0.61461   0.06250   0.00000  Uiso   1.00
Fe899  Fe    0.12500   0.51039   0.18750   0.00000  Uiso   1.00
Fe900  Fe   -0.00000   0.63539   0.18750   0.00000  Uiso   1.00
C901   C     0.40202   0.53174   0.04052   0.00000  Uiso   1.00
C902   C     0.40017   0.56671   0.21983   0.00000  Uiso   1.00
C903   C     0.40898   0.55333   0.00529   0.00000  Uiso   1.00
C904   C     0.42378   0.56104   0.00552   0.00000  Uiso   1.00
C905   C     0.44582   0.53368   0.02869   0.00000  Uiso   1.00
C906   C     0.43211   0.53221   0.03420   0.00000  Uiso   1.00
N907   N     0.38891   0.53177   0.02682   0.00000  Uiso   1.00
N908   N     0.38776   0.55338   0.23314   0.00000  Uiso   1.00
H909   H     0.40568   0.51889   0.06958   0.00000  Uiso   1.00
H910   H     0.40230   0.58257   0.19085   0.00000  Uiso   1.00
H911   H     0.45151   0.51398   0.04829   0.00000  Uiso   1.00
H912   H     0.42842   0.51152   0.05758   0.00000  Uiso   1.00
C913   C     0.27702   0.65674   0.04052   0.00000  Uiso   1.00
C914   C     0.27517   0.69171   0.21983   0.00000  Uiso   1.00
C915   C     0.28398   0.67833   0.00529   0.00000  Uiso   1.00
C916   C     0.29878   0.68604   0.00552   0.00000  Uiso   1.00
C917   C     0.32082   0.65868   0.02869   0.00000  Uiso   1.00
C918   C     0.30711   0.65721   0.03420   0.00000  Uiso   1.00
N919   N     0.26391   0.65677   0.02682   0.00000  Uiso   1.00
N920   N     0.26276   0.67838   0.23314   0.00000  Uiso   1.00
H921   H     0.28068   0.64389   0.06958   0.00000  Uiso   1.00
H922   H     0.27730   0.70757   0.19085   0.00000  Uiso   1.00
H923   H     0.32651   0.63898   0.04829   0.00000  Uiso   1.00
H924   H     0.30342   0.63652   0.05758   0.00000  Uiso   1.00
C925   C     0.34798   0.53174   0.08448   0.00000  Uiso   1.00
C926   C     0.34983   0.56671   0.15517   0.00000  Uiso   1.00
C927   C     0.34102   0.55333   0.11971   0.00000  Uiso   1.00
C928   C     0.32622   0.56104   0.11948   0.00000  Uiso   1.00
C929   C     0.30418   0.53368   0.09631   0.00000  Uiso   1.00
C930   C     0.31789   0.53221   0.09080   0.00000  Uiso   1.00
N931   N     0.36109   0.53177   0.09818   0.00000  Uiso   1.00
N932   N     0.36224   0.55338   0.14186   0.00000  Uiso   1.00
H933   H     0.34432   0.51889   0.05542   0.00000  Uiso   1.00
H934   H     0.34770   0.58257   0.18415   0.00000  Uiso   1.00
H935   H     0.29849   0.51398   0.07671   0.00000  Uiso   1.00
H936   H     0.32158   0.51152   0.06742   0.00000  Uiso   1.00
C937   C     0.47298   0.65674   0.08448   0.00000  Uiso   1.00
C938   C     0.47483   0.69171   0.15517   0.00000  Uiso   1.00
C939   C     0.46602   0.67833   0.11971   0.00000  Uiso   1.00
C940   C     0.45122   0.68604   0.11948   0.00000  Uiso   1.00
C941   C     0.42918   0.65868   0.09631   0.00000  Uiso   1.00
C942   C     0.44289   0.65721   0.09080   0.00000  Uiso   1.00
N943   N     0.48609   0.65677   0.09818   0.00000  Uiso   1.00
N944   N     0.48724   0.67838   0.14186   0.00000  Uiso   1.00
H945   H     0.46932   0.64389   0.05542   0.00000  Uiso   1.00
H946   H     0.47270   0.70757   0.18415   0.00000  Uiso   1.00
H947   H     0.42349   0.63898   0.07671   0.00000  Uiso   1.00
H948   H     0.44658   0.63652   0.06742   0.00000  Uiso   1.00
C949   C     0.34798   0.71826   0.20948   0.00000  Uiso   1.00
C950   C     0.34983   0.68329   0.03017   0.00000  Uiso   1.00
C951   C     0.34102   0.69667   0.24471   0.00000  Uiso   1.00
C952   C     0.32622   0.68896   0.24448   0.00000  Uiso   1.00
C953   C     0.30418   0.71632   0.22131   0.00000  Uiso   1.00
C954   C     0.31789   0.71779   0.21580   0.00000  Uiso   1.00
N955   N     0.36109   0.71823   0.22318   0.00000  Uiso   1.00
N956   N     0.36224   0.69662   0.01686   0.00000  Uiso   1.00
H957   H     0.34432   0.73111   0.18042   0.00000  Uiso   1.00
H958   H     0.34770   0.66743   0.05915   0.00000  Uiso   1.00
H959   H     0.29849   0.73602   0.20171   0.00000  Uiso   1.00
H960   H     0.32158   0.73848   0.19242   0.00000  Uiso   1.00
C961   C     0.47298   0.59326   0.20948   0.00000  Uiso   1.00
C962   C     0.47483   0.55829   0.03017   0.00000  Uiso   1.00
C963   C     0.46602   0.57167   0.24471   0.00000  Uiso   1.00
C964   C     0.45122   0.56396   0.24448   0.00000  Uiso   1.00
C965   C     0.42918   0.59132   0.22131   0.00000  Uiso   1.00
C966   C     0.44289   0.59279   0.21580   0.00000  Uiso   1.00
N967   N     0.48609   0.59323   0.22318   0.00000  Uiso   1.00
N968   N     0.48724   0.57162   0.01686   0.00000  Uiso   1.00
H969   H     0.46932   0.60611   0.18042   0.00000  Uiso   1.00
H970   H     0.47270   0.54243   0.05915   0.00000  Uiso   1.00
H971   H     0.42349   0.61102   0.20171   0.00000  Uiso   1.00
H972   H     0.44658   0.61348   0.19242   0.00000  Uiso   1.00
C973   C     0.40202   0.71826   0.16552   0.00000  Uiso   1.00
C974   C     0.40017   0.68329   0.09483   0.00000  Uiso   1.00
C975   C     0.40898   0.69667   0.13029   0.00000  Uiso   1.00
C976   C     0.42378   0.68896   0.13052   0.00000  Uiso   1.00
C977   C     0.44582   0.71632   0.15369   0.00000  Uiso   1.00
C978   C     0.43211   0.71779   0.15920   0.00000  Uiso   1.00
N979   N     0.38891   0.71823   0.15182   0.00000  Uiso   1.00
N980   N     0.38776   0.69662   0.10814   0.00000  Uiso   1.00
H981   H     0.40568   0.73111   0.19458   0.00000  Uiso   1.00
H982   H     0.40230   0.66743   0.06585   0.00000  Uiso   1.00
H983   H     0.45151   0.73602   0.17329   0.00000  Uiso   1.00
H984   H     0.42842   0.73848   0.18258   0.00000  Uiso   1.00
C985   C     0.27702   0.59326   0.16552   0.00000  Uiso   1.00
C986   C     0.27517   0.55829   0.09483   0.00000  Uiso   1.00
C987   C     0.28398   0.57167   0.13029   0.00000  Uiso   1.00
C988   C     0.29878   0.56396   0.13052   0.00000  Uiso   1.00
C989   C     0.32082   0.59132   0.15369   0.00000  Uiso   1.00
C990   C     0.30711   0.59279   0.15920   0.00000  Uiso   1.00
N991   N     0.26391   0.59323   0.15182   0.00000  Uiso   1.00
N992   N     0.26276   0.57162   0.10814   0.00000  Uiso   1.00
H993   H     0.28068   0.60611   0.19458   0.00000  Uiso   1.00
H994   H     0.27730   0.54243   0.06585   0.00000  Uiso   1.00
H995   H     0.32651   0.61102   0.17329   0.00000  Uiso   1.00
H996   H     0.30342   0.61348   0.18258   0.00000  Uiso   1.00
Fe997  Fe    0.37500   0.73961   0.06250   0.00000  Uiso   1.00
Fe998  Fe    0.25000   0.61461   0.06250   0.00000  Uiso   1.00
Fe999  Fe    0.37500   0.51039   0.18750   0.00000  Uiso   1.00
Fe1000 Fe    0.25000   0.63539   0.18750   0.00000  Uiso   1.00
C1001  C     0.65202   0.53174   0.04052   0.00000  Uiso   1.00
C1002  C     0.65017   0.56671   0.21983   0.00000  Uiso   1.00
C1003  C     0.65898   0.55333   0.00529   0.00000  Uiso   1.00
C1004  C     0.67378   0.56104   0.00552   0.00000  Uiso   1.00
C1005  C     0.69582   0.53368   0.02869   0.00000  Uiso   1.00
C1006  C     0.68211   0.53221   0.03420   0.00000  Uiso   1.00
N1007  N     0.63891   0.53177   0.02682   0.00000  Uiso   1.00
N1008  N     0.63776   0.55338   0.23314   0.00000  Uiso   1.00
H1009  H     0.65568   0.51889   0.06958   0.00000  Uiso   1.00
H1010  H     0.65230   0.58257   0.19085   0.00000  Uiso   1.00
H1011  H     0.70151   0.51398   0.04829   0.00000  Uiso   1.00
H1012  H     0.67842   0.51152   0.05758   0.00000  Uiso   1.00
C1013  C     0.52702   0.65674   0.04052   0.00000  Uiso   1.00
C1014  C     0.52517   0.69171   0.21983   0.00000  Uiso   1.00
C1015  C     0.53398   0.67833   0.00529   0.00000  Uiso   1.00
C1016  C     0.54878   0.68604   0.00552   0.00000  Uiso   1.00
C1017  C     0.57082   0.65868   0.02869   0.00000  Uiso   1.00
C1018  C     0.55711   0.65721   0.03420   0.00000  Uiso   1.00
N1019  N     0.51391   0.65677   0.02682   0.00000  Uiso   1.00
N1020  N     0.51276   0.67838   0.23314   0.00000  Uiso   1.00
H1021  H     0.53068   0.64389   0.06958   0.00000  Uiso   1.00
H1022  H     0.52730   0.70757   0.19085   0.00000  Uiso   1.00
H1023  H     0.57651   0.63898   0.04829   0.00000  Uiso   1.00
H1024  H     0.55342   0.63652   0.05758   0.00000  Uiso   1.00
C1025  C     0.59798   0.53174   0.08448   0.00000  Uiso   1.00
C1026  C     0.59983   0.56671   0.15517   0.00000  Uiso   1.00
C1027  C     0.59102   0.55333   0.11971   0.00000  Uiso   1.00
C1028  C     0.57622   0.56104   0.11948   0.00000  Uiso   1.00
C1029  C     0.55418   0.53368   0.09631   0.00000  Uiso   1.00
C1030  C     0.56789   0.53221   0.09080   0.00000  Uiso   1.00
N1031  N     0.61109   0.53177   0.09818   0.00000  Uiso   1.00
N1032  N     0.61224   0.55338   0.14186   0.00000  Uiso   1.00
H1033  H     0.59432   0.51889   0.05542   0.00000  Uiso   1.00
H1034  H     0.59770   0.58257   0.18415   0.00000  Uiso   1.00
H1035  H     0.54849   0.51398   0.07671   0.00000  Uiso   1.00
H1036  H     0.57158   0.51152   0.06742   0.00000  Uiso   1.00
C1037  C     0.72298   0.65674   0.08448   0.00000  Uiso   1.00
C1038  C     0.72483   0.69171   0.15517   0.00000  Uiso   1.00
C1039  C     0.71602   0.67833   0.11971   0.00000  Uiso   1.00
C1040  C     0.70122   0.68604   0.11948   0.00000  Uiso   1.00
C1041  C     0.67918   0.65868   0.09631   0.00000  Uiso   1.00
C1042  C     0.69289   0.65721   0.09080   0.00000  Uiso   1.00
N1043  N     0.73609   0.65677   0.09818   0.00000  Uiso   1.00
N1044  N     0.73724   0.67838   0.14186   0.00000  Uiso   1.00
H1045  H     0.71932   0.64389   0.05542   0.00000  Uiso   1.00
H1046  H     0.72270   0.70757   0.18415   0.00000  Uiso   1.00
H1047  H     0.67349   0.63898   0.07671   0.00000  Uiso   1.00
H1048  H     0.69658   0.63652   0.06742   0.00000  Uiso   1.00
C1049  C     0.59798   0.71826   0.20948   0.00000  Uiso   1.00
C1050  C     0.59983   0.68329   0.03017   0.00000  Uiso   1.00
C1051  C     0.59102   0.69667   0.24471   0.00000  Uiso   1.00
C1052  C     0.57622   0.68896   0.24448   0.00000  Uiso   1.00
C1053  C     0.55418   0.71632   0.22131   0.00000  Uiso   1.00
C1054  C     0.56789   0.71779   0.21580   0.00000  Uiso   1.00
N1055  N     0.61109   0.71823   0.22318   0.00000  Uiso   1.00
N1056  N     0.61224   0.69662   0.01686   0.00000  Uiso   1.00
H1057  H     0.59432   0.73111   0.18042   0.00000  Uiso   1.00
H1058  H     0.59770   0.66743   0.05915   0.00000  Uiso   1.00
H1059  H     0.54849   0.73602   0.20171   0.00000  Uiso   1.00
H1060  H     0.57158   0.73848   0.19242   0.00000  Uiso   1.00
C1061  C     0.72298   0.59326   0.20948   0.00000  Uiso   1.00
C1062  C     0.72483   0.55829   0.03017   0.00000  Uiso   1.00
C1063  C     0.71602   0.57167   0.24471   0.00000  Uiso   1.00
C1064  C     0.70122   0.56396   0.24448   0.00000  Uiso   1.00
C1065  C     0.67918   0.59132   0.22131   0.00000  Uiso   1.00
C1066  C     0.69289   0.59279   0.21580   0.00000  Uiso   1.00
N1067  N     0.73609   0.59323   0.22318   0.00000  Uiso   1.00
N1068  N     0.73724   0.57162   0.01686   0.00000  Uiso   1.00
H1069  H     0.71932   0.60611   0.18042   0.00000  Uiso   1.00
H1070  H     0.72270   0.54243   0.05915   0.00000  Uiso   1.00
H1071  H     0.67349   0.61102   0.20171   0.00000  Uiso   1.00
H1072  H     0.69658   0.61348   0.19242   0.00000  Uiso   1.00
C1073  C     0.65202   0.71826   0.16552   0.00000  Uiso   1.00
C1074  C     0.65017   0.68329   0.09483   0.00000  Uiso   1.00
C1075  C     0.65898   0.69667   0.13029   0.00000  Uiso   1.00
C1076  C     0.67378   0.68896   0.13052   0.00000  Uiso   1.00
C1077  C     0.69582   0.71632   0.15369   0.00000  Uiso   1.00
C1078  C     0.68211   0.71779   0.15920   0.00000  Uiso   1.00
N1079  N     0.63891   0.71823   0.15182   0.00000  Uiso   1.00
N1080  N     0.63776   0.69662   0.10814   0.00000  Uiso   1.00
H1081  H     0.65568   0.73111   0.19458   0.00000  Uiso   1.00
H1082  H     0.65230   0.66743   0.06585   0.00000  Uiso   1.00
H1083  H     0.70151   0.73602   0.17329   0.00000  Uiso   1.00
H1084  H     0.67842   0.73848   0.18258   0.00000  Uiso   1.00
C1085  C     0.52702   0.59326   0.16552   0.00000  Uiso   1.00
C1086  C     0.52517   0.55829   0.09483   0.00000  Uiso   1.00
C1087  C     0.53398   0.57167   0.13029   0.00000  Uiso   1.00
C1088  C     0.54878   0.56396   0.13052   0.00000  Uiso   1.00
C1089  C     0.57082   0.59132   0.15369   0.00000  Uiso   1.00
C1090  C     0.55711   0.59279   0.15920   0.00000  Uiso   1.00
N1091  N     0.51391   0.59323   0.15182   0.00000  Uiso   1.00
N1092  N     0.51276   0.57162   0.10814   0.00000  Uiso   1.00
H1093  H     0.53068   0.60611   0.19458   0.00000  Uiso   1.00
H1094  H     0.52730   0.54243   0.06585   0.00000  Uiso   1.00
H1095  H     0.57651   0.61102   0.17329   0.00000  Uiso   1.00
H1096  H     0.55342   0.61348   0.18258   0.00000  Uiso   1.00
Fe1097 Fe    0.62500   0.73961   0.06250   0.00000  Uiso   1.00
Fe1098 Fe    0.50000   0.61461   0.06250   0.00000  Uiso   1.00
Fe1099 Fe    0.62500   0.51039   0.18750   0.00000  Uiso   1.00
Fe1100 Fe    0.50000   0.63539   0.18750   0.00000  Uiso   1.00
C1101  C     0.90202   0.53174   0.04052   0.00000  Uiso   1.00
C1102  C     0.90017   0.56671   0.21983   0.00000  Uiso   1.00
C1103  C     0.90898   0.55333   0.00529   0.00000  Uiso   1.00
C1104  C     0.92378   0.56104   0.00552   0.00000  Uiso   1.00
C1105  C     0.94582   0.53368   0.02869   0.00000  Uiso   1.00
C1106  C     0.93211   0.53221   0.03420   0.00000  Uiso   1.00
N1107  N     0.88891   0.53177   0.02682   0.00000  Uiso   1.00
N1108  N     0.88776   0.55338   0.23314   0.00000  Uiso   1.00
H1109  H     0.90568   0.51889   0.06958   0.00000  Uiso   1.00
H1110  H     0.90230   0.58257   0.19085   0.00000  Uiso   1.00
H1111  H     0.95151   0.51398   0.04829   0.00000  Uiso   1.00
H1112  H     0.92842   0.51152   0.05758   0.00000  Uiso   1.00
C1113  C     0.77702   0.65674   0.04052   0.00000  Uiso   1.00
C1114  C     0.77517   0.69171   0.21983   0.00000  Uiso   1.00
C1115  C     0.78398   0.67833   0.00529   0.00000  Uiso   1.00
C1116  C     0.79878   0.68604   0.00552   0.00000  Uiso   1.00
C1117  C     0.82082   0.65868   0.02869   0.00000  Uiso   1.00
C1118  C     0.80711   0.65721   0.03420   0.00000  Uiso   1.00
N1119  N     0.76391   0.65677   0.02682   0.00000  Uiso   1.00
N1120  N     0.76276   0.67838   0.23314   0.00000  Uiso   1.00
H1121  H     0.78068   0.64389   0.06958   0.00000  Uiso   1.00
H1122  H     0.77730   0.70757   0.19085   0.00000  Uiso   1.00
H1123  H     0.82651   0.63898   0.04829   0.00000  Uiso   1.00
H1124  H     0.80342   0.63652   0.05758   0.00000  Uiso   1.00
C1125  C     0.84798   0.53174   0.08448   0.00000  Uiso   1.00
C1126  C     0.84983   0.56671   0.15517   0.00000  Uiso   1.00
C1127  C     0.84102   0.55333   0.11971   0.00000  Uiso   1.00
C1128  C     0.82622   0.56104   0.11948   0.00000  Uiso   1.00
C1129  C     0.80418   0.53368   0.09631   0.00000  Uiso   1.00
C1130  C     0.81789   0.53221   0.09080   0.00000  Uiso   1.00
N1131  N     0.86109   0.53177   0.09818   0.00000  Uiso   1.00
N1132  N     0.86224   0.55338   0.14186   0.00000  Uiso   1.00
H1133  H     0.84432   0.51889   0.05542   0.00000  Uiso   1.00
H1134  H     0.84770   0.58257   0.18415   0.00000  Uiso   1.00
H1135  H     0.79849   0.51398   0.07671   0.00000  Uiso   1.00
H1136  H     0.82158   0.51152   0.06742   0.00000  Uiso   1.00
C1137  C     0.97298   0.65674   0.08448   0.00000  Uiso   1.00
C1138  C     0.97483   0.69171   0.15517   0.00000  Uiso   1.00
C1139  C     0.96602   0.67833   0.11971   0.00000  Uiso   1.00
C1140  C     0.95122   0.68604   0.11948   0.00000  Uiso   1.00
C1141  C     0.92918   0.65868   0.09631   0.00000  Uiso   1.00
C1142  C     0.94289   0.65721   0.09080   0.00000  Uiso   1.00
N1143  N     0.98609   0.65677   0.09818   0.00000  Uiso   1.00
N1144  N     0.98724   0.67838   0.14186   0.00000  Uiso   1.00
H1145  H     0.96932   0.64389   0.05542   0.00000  Uiso   1.00
H1146  H     0.97270   0.70757   0.18415   0.00000  Uiso   1.00
H1147  H     0.92349   0.63898   0.07671   0.00000  Uiso   1.00
H1148  H     0.94658   0.63652   0.06742   0.00000  Uiso   1.00
C1149  C     0.84798   0.71826   0.20948   0.00000  Uiso   1.00
C1150  C     0.84983   0.68329   0.03017   0.00000  Uiso   1.00
C1151  C     0.84102   0.69667   0.24471   0.00000  Uiso   1.00
C1152  C     0.82622   0.68896   0.24448   0.00000  Uiso   1.00
C1153  C     0.80418   0.71632   0.22131   0.00000  Uiso   1.00
C1154  C     0.81789   0.71779   0.21580   0.00000  Uiso   1.00
N1155  N     0.86109   0.71823   0.22318   0.00000  Uiso   1.00
N1156  N     0.86224   0.69662   0.01686   0.00000  Uiso   1.00
H1157  H     0.84432   0.73111   0.18042   0.00000  Uiso   1.00
H1158  H     0.84770   0.66743   0.05915   0.00000  Uiso   1.00
H1159  H     0.79849   0.73602   0.20171   0.00000  Uiso   1.00
H1160  H     0.82158   0.73848   0.19242   0.00000  Uiso   1.00
C1161  C     0.97298   0.59326   0.20948   0.00000  Uiso   1.00
C1162  C     0.97483   0.55829   0.03017   0.00000  Uiso   1.00
C1163  C     0.96602   0.57167   0.24471   0.00000  Uiso   1.00
C1164  C     0.95122   0.56396   0.24448   0.00000  Uiso   1.00
C1165  C     0.92918   0.59132   0.22131   0.00000  Uiso   1.00
C1166  C     0.94289   0.59279   0.21580   0.00000  Uiso   1.00
N1167  N     0.98609   0.59323   0.22318   0.00000  Uiso   1.00
N1168  N     0.98724   0.57162   0.01686   0.00000  Uiso   1.00
H1169  H     0.96932   0.60611   0.18042   0.00000  Uiso   1.00
H1170  H     0.97270   0.54243   0.05915   0.00000  Uiso   1.00
H1171  H     0.92349   0.61102   0.20171   0.00000  Uiso   1.00
H1172  H     0.94658   0.61348   0.19242   0.00000  Uiso   1.00
C1173  C     0.90202   0.71826   0.16552   0.00000  Uiso   1.00
C1174  C     0.90017   0.68329   0.09483   0.00000  Uiso   1.00
C1175  C     0.90898   0.69667   0.13029   0.00000  Uiso   1.00
C1176  C     0.92378   0.68896   0.13052   0.00000  Uiso   1.00
C1177  C     0.94582   0.71632   0.15369   0.00000  Uiso   1.00
C1178  C     0.93211   0.71779   0.15920   0.00000  Uiso   1.00
N1179  N     0.88891   0.71823   0.15182   0.00000  Uiso   1.00
N1180  N     0.88776   0.69662   0.10814   0.00000  Uiso   1.00
H1181  H     0.90568   0.73111   0.19458   0.00000  Uiso   1.00
H1182  H     0.90230   0.66743   0.06585   0.00000  Uiso   1.00
H1183  H     0.95151   0.73602   0.17329   0.00000  Uiso   1.00
H1184  H     0.92842   0.73848   0.18258   0.00000  Uiso   1.00
C1185  C     0.77702   0.59326   0.16552   0.00000  Uiso   1.00
C1186  C     0.77517   0.55829   0.09483   0.00000  Uiso   1.00
C1187  C     0.78398   0.57167   0.13029   0.00000  Uiso   1.00
C1188  C     0.79878   0.56396   0.13052   0.00000  Uiso   1.00
C1189  C     0.82082   0.59132   0.15369   0.00000  Uiso   1.00
C1190  C     0.80711   0.59279   0.15920   0.00000  Uiso   1.00
N1191  N     0.76391   0.59323   0.15182   0.00000  Uiso   1.00
N1192  N     0.76276   0.57162   0.10814   0.00000  Uiso   1.00
H1193  H     0.78068   0.60611   0.19458   0.00000  Uiso   1.00
H1194  H     0.77730   0.54243   0.06585   0.00000  Uiso   1.00
H1195  H     0.82651   0.61102   0.17329   0.00000  Uiso   1.00
H1196  H     0.80342   0.61348   0.18258   0.00000  Uiso   1.00
Fe1197 Fe    0.87500   0.73961   0.06250   0.00000  Uiso   1.00
Fe1198 Fe    0.75000   0.61461   0.06250   0.00000  Uiso   1.00
Fe1199 Fe    0.87500   0.51039   0.18750   0.00000  Uiso   1.00
Fe1200 Fe    0.75000   0.63539   0.18750   0.00000  Uiso   1.00
C1201  C     0.15202   0.78174   0.04052   0.00000  Uiso   1.00
C1202  C     0.15017   0.81671   0.21983   0.00000  Uiso   1.00
C1203  C     0.15898   0.80333   0.00529   0.00000  Uiso   1.00
C1204  C     0.17378   0.81104   0.00552   0.00000  Uiso   1.00
C1205  C     0.19582   0.78368   0.02869   0.00000  Uiso   1.00
C1206  C     0.18211   0.78221   0.03420   0.00000  Uiso   1.00
N1207  N     0.13891   0.78177   0.02682   0.00000  Uiso   1.00
N1208  N     0.13776   0.80338   0.23314   0.00000  Uiso   1.00
H1209  H     0.15568   0.76889   0.06958   0.00000  Uiso   1.00
H1210  H     0.15230   0.83257   0.19085   0.00000  Uiso   1.00
H1211  H     0.20151   0.76398   0.04829   0.00000  Uiso   1.00
H1212  H     0.17842   0.76152   0.05758   0.00000  Uiso   1.00
C1213  C     0.02702   0.90674   0.04052   0.00000  Uiso   1.00
C1214  C     0.02517   0.94171   0.21983   0.00000  Uiso   1.00
C1215  C     0.03398   0.92833   0.00529   0.00000  Uiso   1.00
C1216  C     0.04878   0.93604   0.00552   0.00000  Uiso   1.00
C1217  C     0.07082   0.90868   0.02869   0.00000  Uiso   1.00
C1218  C     0.05711   0.90721   0.03420   0.00000  Uiso   1.00
N1219  N     0.01391   0.90677   0.02682   0.00000  Uiso   1.00
N1220  N     0.01276   0.92838   0.23314   0.00000  Uiso   1.00
H1221  H     0.03068   0.89389   0.06958   0.00000  Uiso   1.00
H1222  H     0.02730   0.95757   0.19085   0.00000  Uiso   1.00
H1223  H     0.07651   0.88898   0.04829   0.00000  Uiso   1.00
H1224  H     0.05342   0.88652   0.05758   0.00000  Uiso   1.00
C1225  C     0.09798   0.78174   0.08448   0.00000  Uiso   1.00
C1226  C     0.09983   0.81671   0.15517   0.00000  Uiso   1.00
C1227  C     0.09102   0.80333   0.11971   0.00000  Uiso   1.00
C1228  C     0.07622   0.81104   0.11948   0.00000  Uiso   1.00
C1229  C     0.05418   0.78368   0.09631   0.00000  Uiso   1.00
C1230  C     0.06789   0.78221   0.09080   0.00000  Uiso   1.00
N1231  N     0.11109   0.78177   0.09818   0.00000  Uiso   1.00
N1232  N     0.11224   0.80338   0.14186   0.00000  Uiso   1.00
H1233  H     0.09432   0.76889   0.05542   0.00000  Uiso   1.00
H1234  H     0.09770   0.83257   0.18415   0.00000  Uiso   1.00
H1235  H     0.04849   0.76398   0.07671   0.00000  Uiso   1.00
H1236  H     0.07158   0.76152   0.06742   0.00000  Uiso   1.00
C1237  C     0.22298   0.90674   0.08448   0.00000  Uiso   1.00
C1238  C     0.22483   0.94171   0.15517   0.00000  Uiso   1.00
C1239  C     0.21602   0.92833   0.11971   0.00000  Uiso   1.00
C1240  C     0.20122   0.93604   0.11948   0.00000  Uiso   1.00
C1241  C     0.17918   0.90868   0.09631   0.00000  Uiso   1.00
C1242  C     0.19289   0.90721   0.09080   0.00000  Uiso   1.00
N1243  N     0.23609   0.90677   0.09818   0.00000  Uiso   1.00
N1244  N     0.23724   0.92838   0.14186   0.00000  Uiso   1.00
H1245  H     0.21932   0.89389   0.05542   0.00000  Uiso   1.00
H1246  H     0.22270   0.95757   0.18415   0.00000  Uiso   1.00
H1247  H     0.17349   0.88898   0.07671   0.00000  Uiso   1.00
H1248  H     0.19658   0.88652   0.06742   0.00000  Uiso   1.00
C1249  C     0.09798   0.96826   0.20948   0.00000  Uiso   1.00
C1250  C     0.09983   0.93329   0.03017   0.00000  Uiso   1.00
C1251  C     0.09102   0.94667   0.24471   0.00000  Uiso   1.00
C1252  C     0.07622   0.93896   0.24448   0.00000  Uiso   1.00
C1253  C     0.05418   0.96632   0.22131   0.00000  Uiso   1.00
C1254  C     0.06789   0.96779   0.21580   0.00000  Uiso   1.00
N1255  N     0.11109   0.96823   0.22318   0.00000  Uiso   1.00
N1256  N     0.11224   0.94662   0.01686   0.00000  Uiso   1.00
H1257  H     0.09432   0.98111   0.18042   0.00000  Uiso   1.00
H1258  H     0.09770   0.91743   0.05915   0.00000  Uiso   1.00
H1259  H     0.04849   0.98602   0.20171   0.00000  Uiso   1.00
H1260  H     0.07158   0.98848   0.19242   0.00000  Uiso   1.00
C1261  C     0.22298   0.84326   0.20948   0.00000  Uiso   1.00
C1262  C     0.22483   0.80829   0.03017   0.00000  Uiso   1.00
C1263  C     0.21602   0.82167   0.24471   0.00000  Uiso   1.00
C1264  C     0.20122   0.81396   0.24448   0.00000  Uiso   1.00
C1265  C     0.17918   0.84132   0.22131   0.00000  Uiso   1.00
C1266  C     0.19289   0.84279   0.21580   0.00000  Uiso   1.00
N1267  N     0.23609   0.84323   0.22318   0.00000  Uiso   1.00
N1268  N     0.23724   0.82162   0.01686   0.00000  Uiso   1.00
H1269  H     0.21932   0.85611   0.18042   0.00000  Uiso   1.00
H1270  H     0.22270   0.79243   0.05915   0.00000  Uiso   1.00
H1271  H     0.17349   0.86102   0.20171   0.00000  Uiso   1.00
H1272  H     0.19658   0.86348   0.19242   0.00000  Uiso   1.00
C1273  C     0.15202   0.96826   0.16552   0.00000  Uiso   1.00
C1274  C     0.15017   0.93329   0.09483   0.00000  Uiso   1.00
C1275  C     0.15898   0.94667   0.13029   0.00000  Uiso   1.00
C1276  C     0.17378   0.93896   0.13052   0.00000  Uiso   1.00
C1277  C     0.19582   0.96632   0.15369   0.00000  Uiso   1.00
C1278  C     0.18211   0.96779   0.15920   0.00000  Uiso   1.00
N1279  N     0.13891   0.96823   0.15182   0.00000  Uiso   1.00
N1280  N     0.13776   0.94662   0.10814   0.00000  Uiso   1.00
H1281  H     0.15568   0.98111   0.19458   0.00000  Uiso   1.00
H1282  H     0.15230   0.91743   0.06585   0.00000  Uiso   1.00
H1283  H     0.20151   0.98602   0.17329   0.00000  Uiso   1.00
H1284  H     0.17842   0.98848   0.18258   0.00000  Uiso   1.00
C1285  C     0.02702   0.84326   0.16552   0.00000  Uiso   1.00
C1286  C     0.02517   0.80829   0.09483   0.00000  Uiso   1.00
C1287  C     0.03398   0.82167   0.13029   0.00000  Uiso   1.00
C1288  C     0.04878   0.81396   0.13052   0.00000  Uiso   1.00
C1289  C     0.07082   0.84132   0.15369   0.00000  Uiso   1.00
C1290  C     0.05711   0.84279   0.15920   0.00000  Uiso   1.00
N1291  N     0.01391   0.84323   0.15182   0.00000  Uiso   1.00
N1292  N     0.01276   0.82162   0.10814   0.00000  Uiso   1.00
H1293  H     0.03068   0.85611   0.19458   0.00000  Uiso   1.00
H1294  H     0.02730   0.79243   0.06585   0.00000  Uiso   1.00
H1295  H     0.07651   0.86102   0.17329   0.00000  Uiso   1.00
H1296  H     0.05342   0.86348   0.18258   0.00000  Uiso   1.00
Fe1297 Fe    0.12500   0.98961   0.06250   0.00000  Uiso   1.00
Fe1298 Fe    0.00000   0.86461   0.06250   0.00000  Uiso   1.00
Fe1299 Fe    0.12500   0.76039   0.18750   0.00000  Uiso   1.00
Fe1300 Fe   -0.00000   0.88539   0.18750   0.00000  Uiso   1.00
C1301  C     0.40202   0.78174   0.04052   0.00000  Uiso   1.00
C1302  C     0.40017   0.81671   0.21983   0.00000  Uiso   1.00
C1303  C     0.40898   0.80333   0.00529   0.00000  Uiso   1.00
C1304  C     0.42378   0.81104   0.00552   0.00000  Uiso   1.00
C1305  C     0.44582   0.78368   0.02869   0.00000  Uiso   1.00
C1306  C     0.43211   0.78221   0.03420   0.00000  Uiso   1.00
N1307  N     0.38891   0.78177   0.02682   0.00000  Uiso   1.00
N1308  N     0.38776   0.80338   0.23314   0.00000  Uiso   1.00
H1309  H     0.40568   0.76889   0.06958   0.00000  Uiso   1.00
H1310  H     0.40230   0.83257   0.19085   0.00000  Uiso   1.00
H1311  H     0.45151   0.76398   0.04829   0.00000  Uiso   1.00
H1312  H     0.42842   0.76152   0.05758   0.00000  Uiso   1.00
C1313  C     0.27702   0.90674   0.04052   0.00000  Uiso   1.00
C1314  C     0.27517   0.94171   0.21983   0.00000  Uiso   1.00
C1315  C     0.28398   0.92833   0.00529   0.00000  Uiso   1.00
C1316  C     0.29878   0.93604   0.00552   0.00000  Uiso   1.00
C1317  C     0.32082   0.90868   0.02869   0.00000  Uiso   1.00
C1318  C     0.30711   0.90721   0.03420   0.00000  Uiso   1.00
N1319  N     0.26391   0.90677   0.02682   0.00000  Uiso   1.00
N1320  N     0.26276   0.92838   0.23314   0.00000  Uiso   1.00
H1321  H     0.28068   0.89389   0.06958   0.00000  Uiso   1.00
H1322  H     0.27730   0.95757   0.19085   0.00000  Uiso   1.00
H1323  H     0.32651   0.88898   0.04829   0.00000  Uiso   1.00
H1324  H     0.30342   0.88652   0.05758   0.00000  Uiso   1.00
C1325  C     0.34798   0.78174   0.08448   0.00000  Uiso   1.00
C1326  C     0.34983   0.81671   0.15517   0.00000  Uiso   1.00
C1327  C     0.34102   0.80333   0.11971   0.00000  Uiso   1.00
C1328  C     0.32622   0.81104   0.11948   0.00000  Uiso   1.00
C1329  C     0.30418   0.78368   0.09631   0.00000  Uiso   1.00
C1330  C     0.31789   0.78221   0.09080   0.00000  Uiso   1.00
N1331  N     0.36109   0.78177   0.09818   0.00000  Uiso   1.00
N1332  N     0.36224   0.80338   0.14186   0.00000  Uiso   1.00
H1333  H     0.34432   0.76889   0.05542   0.00000  Uiso   1.00
H1334  H     0.34770   0.83257   0.18415   0.00000  Uiso   1.00
H1335  H     0.29849   0.76398   0.07671   0.00000  Uiso   1.00
H1336  H     0.32158   0.76152   0.06742   0.00000  Uiso   1.00
C1337  C     0.47298   0.90674   0.08448   0.00000  Uiso   1.00
C1338  C     0.47483   0.94171   0.15517   0.00000  Uiso   1.00
C1339  C     0.46602   0.92833   0.11971   0.00000  Uiso   1.00
C1340  C     0.45122   0.93604   0.11948   0.00000  Uiso   1.00
C1341  C     0.42918   0.90868   0.09631   0.00000  Uiso   1.00
C1342  C     0.44289   0.90721   0.09080   0.00000  Uiso   1.00
N1343  N     0.48609   0.90677   0.09818   0.00000  Uiso   1.00
N1344  N     0.48724   0.92838   0.14186   0.00000  Uiso   1.00
H1345  H     0.46932   0.89389   0.05542   0.00000  Uiso   1.00
H1346  H     0.47270   0.95757   0.18415   0.00000  Uiso   1.00
H1347  H     0.42349   0.88898   0.07671   0.00000  Uiso   1.00
H1348  H     0.44658   0.88652   0.06742   0.00000  Uiso   1.00
C1349  C     0.34798   0.96826   0.20948   0.00000  Uiso   1.00
C1350  C     0.34983   0.93329   0.03017   0.00000  Uiso   1.00
C1351  C     0.34102   0.94667   0.24471   0.00000  Uiso   1.00
C1352  C     0.32622   0.93896   0.24448   0.00000  Uiso   1.00
C1353  C     0.30418   0.96632   0.22131   0.00000  Uiso   1.00
C1354  C     0.31789   0.96779   0.21580   0.00000  Uiso   1.00
N1355  N     0.36109   0.96823   0.22318   0.00000  Uiso   1.00
N1356  N     0.36224   0.94662   0.01686   0.00000  Uiso   1.00
H1357  H     0.34432   0.98111   0.18042   0.00000  Uiso   1.00
H1358  H     0.34770   0.91743   0.05915   0.00000  Uiso   1.00
H1359  H     0.29849   0.98602   0.20171   0.00000  Uiso   1.00
H1360  H     0.32158   0.98848   0.19242   0.00000  Uiso   1.00
C1361  C     0.47298   0.84326   0.20948   0.00000  Uiso   1.00
C1362  C     0.47483   0.80829   0.03017   0.00000  Uiso   1.00
C1363  C     0.46602   0.82167   0.24471   0.00000  Uiso   1.00
C1364  C     0.45122   0.81396   0.24448   0.00000  Uiso   1.00
C1365  C     0.42918   0.84132   0.22131   0.00000  Uiso   1.00
C1366  C     0.44289   0.84279   0.21580   0.00000  Uiso   1.00
N1367  N     0.48609   0.84323   0.22318   0.00000  Uiso   1.00
N1368  N     0.48724   0.82162   0.01686   0.00000  Uiso   1.00
H1369  H     0.46932   0.85611   0.18042   0.00000  Uiso   1.00
H1370  H     0.47270   0.79243   0.05915   0.00000  Uiso   1.00
H1371  H     0.42349   0.86102   0.20171   0.00000  Uiso   1.00
H1372  H     0.44658   0.86348   0.19242   0.00000  Uiso   1.00
C1373  C     0.40202   0.96826   0.16552   0.00000  Uiso   1.00
C1374  C     0.40017   0.93329   0.09483   0.00000  Uiso   1.00
C1375  C     0.40898   0.94667   0.13029   0.00000  Uiso   1.00
C1376  C     0.42378   0.93896   0.13052   0.00000  Uiso   1.00
C1377  C     0.44582   0.96632   0.15369   0.00000  Uiso   1.00
C1378  C     0.43211   0.96779   0.15920   0.00000  Uiso   1.00
N1379  N     0.38891   0.96823   0.15182   0.00000  Uiso   1.00
N1380  N     0.38776   0.94662   0.10814   0.00000  Uiso   1.00
H1381  H     0.40568   0.98111   0.19458   0.00000  Uiso   1.00
H1382  H     0.40230   0.91743   0.06585   0.00000  Uiso   1.00
H1383  H     0.45151   0.98602   0.17329   0.00000  Uiso   1.00
H1384  H     0.42842   0.98848   0.18258   0.00000  Uiso   1.00
C1385  C     0.27702   0.84326   0.16552   0.00000  Uiso   1.00
C1386  C     0.27517   0.80829   0.09483   0.00000  Uiso   1.00
C1387  C     0.28398   0.82167   0.13029   0.00000  Uiso   1.00
C1388  C     0.29878   0.81396   0.13052   0.00000  Uiso   1.00
C1389  C     0.32082   0.84132   0.15369   0.00000  Uiso   1.00
C1390  C     0.30711   0.84279   0.15920   0.00000  Uiso   1.00
N1391  N     0.26391   0.84323   0.15182   0.00000  Uiso   1.00
N1392  N     0.26276   0.82162   0.10814   0.00000  Uiso   1.00
H1393  H     0.28068   0.85611   0.19458   0.00000  Uiso   1.00
H1394  H     0.27730   0.79243   0.06585   0.00000  Uiso   1.00
H1395  H     0.32651   0.86102   0.17329   0.00000  Uiso   1.00
H1396  H     0.30342   0.86348   0.18258   0.00000  Uiso   1.00
Fe1397 Fe    0.37500   0.98961   0.06250   0.00000  Uiso   1.00
Fe1398 Fe    0.25000   0.86461   0.06250   0.00000  Uiso   1.00
Fe1399 Fe    0.37500   0.76039   0.18750   0.00000  Uiso   1.00
Fe1400 Fe    0.25000   0.88539   0.18750   0.00000  Uiso   1.00
C1401  C     0.65202   0.78174   0.04052   0.00000  Uiso   1.00
C1402  C     0.65017   0.81671   0.21983   0.00000  Uiso   1.00
C1403  C     0.65898   0.80333   0.00529   0.00000  Uiso   1.00
C1404  C     0.67378   0.81104   0.00552   0.00000  Uiso   1.00
C1405  C     0.69582   0.78368   0.02869   0.00000  Uiso   1.00
C1406  C     0.68211   0.78221   0.03420   0.00000  Uiso   1.00
N1407  N     0.63891   0.78177   0.02682   0.00000  Uiso   1.00
N1408  N     0.63776   0.80338   0.23314   0.00000  Uiso   1.00
H1409  H     0.65568   0.76889   0.06958   0.00000  Uiso   1.00
H1410  H     0.65230   0.83257   0.19085   0.00000  Uiso   1.00
H1411  H     0.70151   0.76398   0.04829   0.00000  Uiso   1.00
H1412  H     0.67842   0.76152   0.05758   0.00000  Uiso   1.00
C1413  C     0.52702   0.90674   0.04052   0.00000  Uiso   1.00
C1414  C     0.52517   0.94171   0.21983   0.00000  Uiso   1.00
C1415  C     0.53398   0.92833   0.00529   0.00000  Uiso   1.00
C1416  C     0.54878   0.93604   0.00552   0.00000  Uiso   1.00
C1417  C     0.57082   0.90868   0.02869   0.00000  Uiso   1.00
C1418  C     0.55711   0.90721   0.03420   0.00000  Uiso   1.00
N1419  N     0.51391   0.90677   0.02682   0.00000  Uiso   1.00
N1420  N     0.51276   0.92838   0.23314   0.00000  Uiso   1.00
H1421  H     0.53068   0.89389   0.06958   0.00000  Uiso   1.00
H1422  H     0.52730   0.95757   0.19085   0.00000  Uiso   1.00
H1423  H     0.57651   0.88898   0.04829   0.00000  Uiso   1.00
H1424  H     0.55342   0.88652   0.05758   0.00000  Uiso   1.00
C1425  C     0.59798   0.78174   0.08448   0.00000  Uiso   1.00
C1426  C     0.59983   0.81671   0.15517   0.00000  Uiso   1.00
C1427  C     0.59102   0.80333   0.11971   0.00000  Uiso   1.00
C1428  C     0.57622   0.81104   0.11948   0.00000  Uiso   1.00
C1429  C     0.55418   0.78368   0.09631   0.00000  Uiso   1.00
C1430  C     0.56789   0.78221   0.09080   0.00000  Uiso   1.00
N1431  N     0.61109   0.78177   0.09818   0.00000  Uiso   1.00
N1432  N     0.61224   0.80338   0.14186   0.00000  Uiso   1.00
H1433  H     0.59432   0.76889   0.05542   0.00000  Uiso   1.00
H1434  H     0.59770   0.83257   0.18415   0.00000  Uiso   1.00
H1435  H     0.54849   0.76398   0.07671   0.00000  Uiso   1.00
H1436  H     0.57158   0.76152   0.06742   0.00000  Uiso   1.00
C1437  C     0.72298   0.90674   0.08448   0.00000  Uiso   1.00
C1438  C     0.72483   0.94171   0.15517   0.00000  Uiso   1.00
C1439  C     0.71602   0.92833   0.11971   0.00000  Uiso   1.00
C1440  C     0.70122   0.93604   0.11948   0.00000  Uiso   1.00
C1441  C     0.67918   0.90868   0.09631   0.00000  Uiso   1.00
C1442  C     0.69289   0.90721   0.09080   0.00000  Uiso   1.00
N1443  N     0.73609   0.90677   0.09818   0.00000  Uiso   1.00
N1444  N     0.73724   0.92838   0.14186   0.00000  Uiso   1.00
H1445  H     0.71932   0.89389   0.05542   0.00000  Uiso   1.00
H1446  H     0.72270   0.95757   0.18415   0.00000  Uiso   1.00
H1447  H     0.67349   0.88898   0.07671   0.00000  Uiso   1.00
H1448  H     0.69658   0.88652   0.06742   0.00000  Uiso   1.00
C1449  C     0.59798   0.96826   0.20948   0.00000  Uiso   1.00
C1450  C     0.59983   0.93329   0.03017   0.00000  Uiso   1.00
C1451  C     0.59102   0.94667   0.24471   0.00000  Uiso   1.00
C1452  C     0.57622   0.93896   0.24448   0.00000  Uiso   1.00
C1453  C     0.55418   0.96632   0.22131   0.00000  Uiso   1.00
C1454  C     0.56789   0.96779   0.21580   0.00000  Uiso   1.00
N1455  N     0.61109   0.96823   0.22318   0.00000  Uiso   1.00
N1456  N     0.61224   0.94662   0.01686   0.00000  Uiso   1.00
H1457  H     0.59432   0.98111   0.18042   0.00000  Uiso   1.00
H1458  H     0.59770   0.91743   0.05915   0.00000  Uiso   1.00
H1459  H     0.54849   0.98602   0.20171   0.00000  Uiso   1.00
H1460  H     0.57158   0.98848   0.19242   0.00000  Uiso   1.00
C1461  C     0.72298   0.84326   0.20948   0.00000  Uiso   1.00
C1462  C     0.72483   0.80829   0.03017   0.00000  Uiso   1.00
C1463  C     0.71602   0.82167   0.24471   0.00000  Uiso   1.00
C1464  C     0.70122   0.81396   0.24448   0.00000  Uiso   1.00
C1465  C     0.67918   0.84132   0.22131   0.00000  Uiso   1.00
C1466  C     0.69289   0.84279   0.21580   0.00000  Uiso   1.00
N1467  N     0.73609   0.84323   0.22318   0.00000  Uiso   1.00
N1468  N     0.73724   0.82162   0.01686   0.00000  Uiso   1.00
H1469  H     0.71932   0.85611   0.18042   0.00000  Uiso   1.00
H1470  H     0.72270   0.79243   0.05915   0.00000  Uiso   1.00
H1471  H     0.67349   0.86102   0.20171   0.00000  Uiso   1.00
H1472  H     0.69658   0.86348   0.19242   0.00000  Uiso   1.00
C1473  C     0.65202   0.96826   0.16552   0.00000  Uiso   1.00
C1474  C     0.65017   0.93329   0.09483   0.00000  Uiso   1.00
C1475  C     0.65898   0.94667   0.13029   0.00000  Uiso   1.00
C1476  C     0.67378   0.93896   0.13052   0.00000  Uiso   1.00
C1477  C     0.69582   0.96632   0.15369   0.00000  Uiso   1.00
C1478  C     0.68211   0.96779   0.15920   0.00000  Uiso   1.00
N1479  N     0.63891   0.96823   0.15182   0.00000  Uiso   1.00
N1480  N     0.63776   0.94662   0.10814   0.00000  Uiso   1.00
H1481  H     0.65568   0.98111   0.19458   0.00000  Uiso   1.00
H1482  H     0.65230   0.91743   0.06585   0.00000  Uiso   1.00
H1483  H     0.70151   0.98602   0.17329   0.00000  Uiso   1.00
H1484  H     0.67842   0.98848   0.18258   0.00000  Uiso   1.00
C1485  C     0.52702   0.84326   0.16552   0.00000  Uiso   1.00
C1486  C     0.52517   0.80829   0.09483   0.00000  Uiso   1.00
C1487  C     0.53398   0.82167   0.13029   0.00000  Uiso   1.00
C1488  C     0.54878   0.81396   0.13052   0.00000  Uiso   1.00
C1489  C     0.57082   0.84132   0.15369   0.00000  Uiso   1.00
C1490  C     0.55711   0.84279   0.15920   0.00000  Uiso   1.00
N1491  N     0.51391   0.84323   0.15182   0.00000  Uiso   1.00
N1492  N     0.51276   0.82162   0.10814   0.00000  Uiso   1.00
H1493  H     0.53068   0.85611   0.19458   0.00000  Uiso   1.00
H1494  H     0.52730   0.79243   0.06585   0.00000  Uiso   1.00
H1495  H     0.57651   0.86102   0.17329   0.00000  Uiso   1.00
H1496  H     0.55342   0.86348   0.18258   0.00000  Uiso   1.00
Fe1497 Fe    0.62500   0.98961   0.06250   0.00000  Uiso   1.00
Fe1498 Fe    0.50000   0.86461   0.06250   0.00000  Uiso   1.00
Fe1499 Fe    0.62500   0.76039   0.18750   0.00000  Uiso   1.00
Fe1500 Fe    0.50000   0.88539   0.18750   0.00000  Uiso   1.00
C1501  C     0.90202   0.78174   0.04052   0.00000  Uiso   1.00
C1502  C     0.90017   0.81671   0.21983   0.00000  Uiso   1.00
C1503  C     0.90898   0.80333   0.00529   0.00000  Uiso   1.00
C1504  C     0.92378   0.81104   0.00552   0.00000  Uiso   1.00
C1505  C     0.94582   0.78368   0.02869   0.00000  Uiso   1.00
C1506  C     0.93211   0.78221   0.03420   0.00000  Uiso   1.00
N1507  N     0.88891   0.78177   0.02682   0.00000  Uiso   1.00
N1508  N     0.88776   0.80338   0.23314   0.00000  Uiso   1.00
H1509  H     0.90568   0.76889   0.06958   0.00000  Uiso   1.00
H1510  H     0.90230   0.83257   0.19085   0.00000  Uiso   1.00
H1511  H     0.95151   0.76398   0.04829   0.00000  Uiso   1.00
H1512  H     0.92842   0.76152   0.05758   0.00000  Uiso   1.00
C1513  C     0.77702   0.90674   0.04052   0.00000  Uiso   1.00
C1514  C     0.77517   0.94171   0.21983   0.00000  Uiso   1.00
C1515  C     0.78398   0.92833   0.00529   0.00000  Uiso   1.00
C1516  C     0.79878   0.93604   0.00552   0.00000  Uiso   1.00
C1517  C     0.82082   0.90868   0.02869   0.00000  Uiso   1.00
C1518  C     0.80711   0.90721   0.03420   0.00000  Uiso   1.00
N1519  N     0.76391   0.90677   0.02682   0.00000  Uiso   1.00
N1520  N     0.76276   0.92838   0.23314   0.00000  Uiso   1.00
H1521  H     0.78068   0.89389   0.06958   0.00000  Uiso   1.00
H1522  H     0.77730   0.95757   0.19085   0.00000  Uiso   1.00
H1523  H     0.82651   0.88898   0.04829   0.00000  Uiso   1.00
H1524  H     0.80342   0.88652   0.05758   0.00000  Uiso   1.00
C1525  C     0.84798   0.78174   0.08448   0.00000  Uiso   1.00
C1526  C     0.84983   0.81671   0.15517   0.00000  Uiso   1.00
C1527  C     0.84102   0.80333   0.11971   0.00000  Uiso   1.00
C1528  C     0.82622   0.81104   0.11948   0.00000  Uiso   1.00
C1529  C     0.80418   0.78368   0.09631   0.00000  Uiso   1.00
C1530  C     0.81789   0.78221   0.09080   0.00000  Uiso   1.00
N1531  N     0.86109   0.78177   0.09818   0.00000  Uiso   1.00
N1532  N     0.86224   0.80338   0.14186   0.00000  Uiso   1.00
H1533  H     0.84432   0.76889   0.05542   0.00000  Uiso   1.00
H1534  H     0.84770   0.83257   0.18415   0.00000  Uiso   1.00
H1535  H     0.79849   0.76398   0.07671   0.00000  Uiso   1.00
H1536  H     0.82158   0.76152   0.06742   0.00000  Uiso   1.00
C1537  C     0.97298   0.90674   0.08448   0.00000  Uiso   1.00
C1538  C     0.97483   0.94171   0.15517   0.00000  Uiso   1.00
C1539  C     0.96602   0.92833   0.11971   0.00000  Uiso   1.00
C1540  C     0.95122   0.93604   0.11948   0.00000  Uiso   1.00
C1541  C     0.92918   0.90868   0.09631   0.00000  Uiso   1.00
C1542  C     0.94289   0.90721   0.09080   0.00000  Uiso   1.00
N1543  N     0.98609   0.90677   0.09818   0.00000  Uiso   1.00
N1544  N     0.98724   0.92838   0.14186   0.00000  Uiso   1.00
H1545  H     0.96932   0.89389   0.05542   0.00000  Uiso   1.00
H1546  H     0.97270   0.95757   0.18415   0.00000  Uiso   1.00
H1547  H     0.92349   0.88898   0.07671   0.00000  Uiso   1.00
H1548  H     0.94658   0.88652   0.06742   0.00000  Uiso   1.00
C1549  C     0.84798   0.96826   0.20948   0.00000  Uiso   1.00
C1550  C     0.84983   0.93329   0.03017   0.00000  Uiso   1.00
C1551  C     0.84102   0.94667   0.24471   0.00000  Uiso   1.00
C1552  C     0.82622   0.93896   0.24448   0.00000  Uiso   1.00
C1553  C     0.80418   0.96632   0.22131   0.00000  Uiso   1.00
C1554  C     0.81789   0.96779   0.21580   0.00000  Uiso   1.00
N1555  N     0.86109   0.96823   0.22318   0.00000  Uiso   1.00
N1556  N     0.86224   0.94662   0.01686   0.00000  Uiso   1.00
H1557  H     0.84432   0.98111   0.18042   0.00000  Uiso   1.00
H1558  H     0.84770   0.91743   0.05915   0.00000  Uiso   1.00
H1559  H     0.79849   0.98602   0.20171   0.00000  Uiso   1.00
H1560  H     0.82158   0.98848   0.19242   0.00000  Uiso   1.00
C1561  C     0.97298   0.84326   0.20948   0.00000  Uiso   1.00
C1562  C     0.97483   0.80829   0.03017   0.00000  Uiso   1.00
C1563  C     0.96602   0.82167   0.24471   0.00000  Uiso   1.00
C1564  C     0.95122   0.81396   0.24448   0.00000  Uiso   1.00
C1565  C     0.92918   0.84132   0.22131   0.00000  Uiso   1.00
C1566  C     0.94289   0.84279   0.21580   0.00000  Uiso   1.00
N1567  N     0.98609   0.84323   0.22318   0.00000  Uiso   1.00
N1568  N     0.98724   0.82162   0.01686   0.00000  Uiso   1.00
H1569  H     0.96932   0.85611   0.18042   0.00000  Uiso   1.00
H1570  H     0.97270   0.79243   0.05915   0.00000  Uiso   1.00
H1571  H     0.92349   0.86102   0.20171   0.00000  Uiso   1.00
H1572  H     0.94658   0.86348   0.19242   0.00000  Uiso   1.00
C1573  C     0.90202   0.96826   0.16552   0.00000  Uiso   1.00
C1574  C     0.90017   0.93329   0.09483   0.00000  Uiso   1.00
C1575  C     0.90898   0.94667   0.13029   0.00000  Uiso   1.00
C1576  C     0.92378   0.93896   0.13052   0.00000  Uiso   1.00
C1577  C     0.94582   0.96632   0.15369   0.00000  Uiso   1.00
C1578  C     0.93211   0.96779   0.15920   0.00000  Uiso   1.00
N1579  N     0.88891   0.96823   0.15182   0.00000  Uiso   1.00
N1580  N     0.88776   0.94662   0.10814   0.00000  Uiso   1.00
H1581  H     0.90568   0.98111   0.19458   0.00000  Uiso   1.00
H1582  H     0.90230   0.91743   0.06585   0.00000  Uiso   1.00
H1583  H     0.95151   0.98602   0.17329   0.00000  Uiso   1.00
H1584  H     0.92842   0.98848   0.18258   0.00000  Uiso   1.00
C1585  C     0.77702   0.84326   0.16552   0.00000  Uiso   1.00
C1586  C     0.77517   0.80829   0.09483   0.00000  Uiso   1.00
C1587  C     0.78398   0.82167   0.13029   0.00000  Uiso   1.00
C1588  C     0.79878   0.81396   0.13052   0.00000  Uiso   1.00
C1589  C     0.82082   0.84132   0.15369   0.00000  Uiso   1.00
C1590  C     0.80711   0.84279   0.15920   0.00000  Uiso   1.00
N1591  N     0.76391   0.84323   0.15182   0.00000  Uiso   1.00
N1592  N     0.76276   0.82162   0.10814   0.00000  Uiso   1.00
H1593  H     0.78068   0.85611   0.19458   0.00000  Uiso   1.00
H1594  H     0.77730   0.79243   0.06585   0.00000  Uiso   1.00
H1595  H     0.82651   0.86102   0.17329   0.00000  Uiso   1.00
H1596  H     0.80342   0.86348   0.18258   0.00000  Uiso   1.00
Fe1597 Fe    0.87500   0.98961   0.06250   0.00000  Uiso   1.00
Fe1598 Fe    0.75000   0.86461   0.06250   0.00000  Uiso   1.00
Fe1599 Fe    0.87500   0.76039   0.18750   0.00000  Uiso   1.00
Fe1600 Fe    0.75000   0.88539   0.18750   0.00000  Uiso   1.00
C1601  C     0.15202   0.03174   0.29052   0.00000  Uiso   1.00
C1602  C     0.15017   0.06671   0.46983   0.00000  Uiso   1.00
C1603  C     0.15898   0.05333   0.25529   0.00000  Uiso   1.00
C1604  C     0.17378   0.06104   0.25552   0.00000  Uiso   1.00
C1605  C     0.19582   0.03368   0.27869   0.00000  Uiso   1.00
C1606  C     0.18211   0.03221   0.28420   0.00000  Uiso   1.00
N1607  N     0.13891   0.03177   0.27682   0.00000  Uiso   1.00
N1608  N     0.13776   0.05338   0.48314   0.00000  Uiso   1.00
H1609  H     0.15568   0.01889   0.31958   0.00000  Uiso   1.00
H1610  H     0.15230   0.08257   0.44085   0.00000  Uiso   1.00
H1611  H     0.20151   0.01398   0.29829   0.00000  Uiso   1.00
H1612  H     0.17842   0.01152   0.30758   0.00000  Uiso   1.00
C1613  C     0.02702   0.15674   0.29052   0.00000  Uiso   1.00
C1614  C     0.02517   0.19171   0.46983   0.00000  Uiso   1.00
C1615  C     0.03398   0.17833   0.25529   0.00000  Uiso   1.00
C1616  C     0.04878   0.18604   0.25552   0.00000  Uiso   1.00
C1617  C     0.07082   0.15868   0.27869   0.00000  Uiso   1.00
C1618  C     0.05711   0.15721   0.28420   0.00000  Uiso   1.00
N1619  N     0.01391   0.15677   0.27682   0.00000  Uiso   1.00
N1620  N     0.01276   0.17838   0.48314   0.00000  Uiso   1.00
H1621  H     0.03068   0.14389   0.31958   0.00000  Uiso   1.00
H1622  H     0.02730   0.20757   0.44085   0.00000  Uiso   1.00
H1623  H     0.07651   0.13898   0.29829   0.00000  Uiso   1.00
H1624  H     0.05342   0.13652   0.30758   0.00000  Uiso   1.00
C1625  C     0.09798   0.03174   0.33448   0.00000  Uiso   1.00
C1626  C     0.09983   0.06671   0.40517   0.00000  Uiso   1.00
C1627  C     0.09102   0.05333   0.36971   0.00000  Uiso   1.00
C1628  C     0.07622   0.06104   0.36948   0.00000  Uiso   1.00
C1629  C     0.05418   0.03368   0.34631   0.00000  Uiso   1.00
C1630  C     0.06789   0.03221   0.34080   0.00000  Uiso   1.00
N1631  N     0.11109   0.03177   0.34818   0.00000  Uiso   1.00
N1632  N     0.11224   0.05338   0.39186   0.00000  Uiso   1.00
H1633  H     0.09432   0.01889   0.30542   0.00000  Uiso   1.00
H1634  H     0.09770   0.08257   0.43415   0.00000  Uiso   1.00
H1635  H     0.04849   0.01398   0.32671   0.00000  Uiso   1.00
H1636  H     0.07158   0.01152   0.31742   0.00000  Uiso   1.00
C1637  C     0.22298   0.15674   0.33448   0.00000  Uiso   1.00
C1638  C     0.22483   0.19171   0.40517   0.00000  Uiso   1.00
C1639  C     0.21602   0.17833   0.36971   0.00000  Uiso   1.00
C1640  C     0.20122   0.18604   0.36948   0.00000  Uiso   1.00
C1641  C     0.17918   0.15868   0.34631   0.00000  Uiso   1.00
C1642  C     0.19289   0.15721   0.34080   0.00000  Uiso   1.00
N1643  N     0.23609   0.15677   0.34818   0.00000  Uiso   1.00
N1644  N     0.23724   0.17838   0.39186   0.00000  Uiso   1.00
H1645  H     0.21932   0.14389   0.30542   0.00000  Uiso   1.00
H1646  H     0.22270   0.20757   0.43415   0.00000  Uiso   1.00
H1647  H     0.17349   0.13898   0.32671   0.00000  Uiso   1.00
H1648  H     0.19658   0.13652   0.31742   0.00000  Uiso   1.00
C1649  C     0.09798   0.21826   0.45948   0.00000  Uiso   1.00
C1650  C     0.09983   0.18329   0.28017   0.00000  Uiso   1.00
C1651  C     0.09102   0.19667   0.49471   0.00000  Uiso   1.00
C1652  C     0.07622   0.18896   0.49448   0.00000  Uiso   1.00
C1653  C     0.05418   0.21632   0.47131   0.00000  Uiso   1.00
C1654  C     0.06789   0.21779   0.46580   0.00000  Uiso   1.00
N1655  N     0.11109   0.21823   0.47318   0.00000  Uiso   1.00
N1656  N     0.11224   0.19662   0.26686   0.00000  Uiso   1.00
H1657  H     0.09432   0.23111   0.43042   0.00000  Uiso   1.00
H1658  H     0.09770   0.16743   0.30915   0.00000  Uiso   1.00
H1659  H     0.04849   0.23602   0.45171   0.00000  Uiso   1.00
H1660  H     0.07158   0.23848   0.44242   0.00000  Uiso   1.00
C1661  C     0.22298   0.09326   0.45948   0.00000  Uiso   1.00
C1662  C     0.22483   0.05829   0.28017   0.00000  Uiso   1.00
C1663  C     0.21602   0.07167   0.49471   0.00000  Uiso   1.00
C1664  C     0.20122   0.06396   0.49448   0.00000  Uiso   1.00
C1665  C     0.17918   0.09132   0.47131   0.00000  Uiso   1.00
C1666  C     0.19289   0.09279   0.46580   0.00000  Uiso   1.00
N1667  N     0.23609   0.09323   0.47318   0.00000  Uiso   1.00
N1668  N     0.23724   0.07162   0.26686   0.00000  Uiso   1.00
H1669  H     0.21932   0.10611   0.43042   0.00000  Uiso   1.00
H1670  H     0.22270   0.04243   0.30915   0.00000  Uiso   1.00
H1671  H     0.17349   0.11102   0.45171   0.00000  Uiso   1.00
H1672  H     0.19658   0.11348   0.44242   0.00000  Uiso   1.00
C1673  C     0.15202   0.21826   0.41552   0.00000  Uiso   1.00
C1674  C     0.15017   0.18329   0.34483   0.00000  Uiso   1.00
C1675  C     0.15898   0.19667   0.38029   0.00000  Uiso   1.00
C1676  C     0.17378   0.18896   0.38052   0.00000  Uiso   1.00
C1677  C     0.19582   0.21632   0.40369   0.00000  Uiso   1.00
C1678  C     0.18211   0.21779   0.40920   0.00000  Uiso   1.00
N1679  N     0.13891   0.21823   0.40182   0.00000  Uiso   1.00
N1680  N     0.13776   0.19662   0.35814   0.00000  Uiso   1.00
H1681  H     0.15568   0.23111   0.44458   0.00000  Uiso   1.00
H1682  H     0.15230   0.16743   0.31585   0.00000  Uiso   1.00
H1683  H     0.20151   0.23602   0.42329   0.00000  Uiso   1.00
H1684  H     0.17842   0.23848   0.43258   0.00000  Uiso   1.00
C1685  C     0.02702   0.09326   0.41552   0.00000  Uiso   1.00
C1686  C     0.02517   0.05829   0.34483   0.00000  Uiso   1.00
C1687  C     0.03398   0.07167   0.38029   0.00000  Uiso   1.00
C1688  C     0.04878   0.06396   0.38052   0.00000  Uiso   1.00
C1689  C     0.07082   0.09132   0.40369   0.00000  Uiso   1.00
C1690  C     0.05711   0.09279   0.40920   0.00000  Uiso   1.00
N1691  N     0.01391   0.09323   0.40182   0.00000  Uiso   1.00
N1692  N     0.01276   0.07162   0.35814   0.00000  Uiso   1.00
H1693  H     0.03068   0.10611   0.44458   0.00000  Uiso   1.00
H1694  H     0.02730   0.04243   0.31585   0.00000  Uiso   1.00
H1695  H     0.07651   0.11102   0.42329   0.00000  Uiso   1.00
H1696  H     0.05342   0.11348   0.43258   0.00000  Uiso   1.00
Fe1697 Fe    0.12500   0.23961   0.31250   0.00000  Uiso   1.00
Fe1698 Fe    0.00000   0.11461   0.31250   0.00000  Uiso   1.00
Fe1699 Fe    0.12500   0.01039   0.43750   0.00000  Uiso   1.00
Fe1700 Fe   -0.00000   0.13539   0.43750   0.00000  Uiso   1.00
C1701  C     0.40202   0.03174   0.29052   0.00000  Uiso   1.00
C1702  C     0.40017   0.06671   0.46983   0.00000  Uiso   1.00
C1703  C     0.40898   0.05333   0.25529   0.00000  Uiso   1.00
C1704  C     0.42378   0.06104   0.25552   0.00000  Uiso   1.00
C1705  C     0.44582   0.03368   0.27869   0.00000  Uiso   1.00
C1706  C     0.43211   0.03221   0.28420   0.00000  Uiso   1.00
N1707  N     0.38891   0.03177   0.27682   0.00000  Uiso   1.00
N1708  N     0.38776   0.05338   0.48314   0.00000  Uiso   1.00
H1709  H     0.40568   0.01889   0.31958   0.00000  Uiso   1.00
H1710  H     0.40230   0.08257   0.44085   0.00000  Uiso   1.00
H1711  H     0.45151   0.01398   0.29829   0.00000  Uiso   1.00
H1712  H     0.42842   0.01152   0.30758   0.00000  Uiso   1.00
C1713  C     0.27702   0.15674   0.29052   0.00000  Uiso   1.00
C1714  C     0.27517   0.19171   0.46983   0.00000  Uiso   1.00
C1715  C     0.28398   0.17833   0.25529   0.00000  Uiso   1.00
C1716  C     0.29878   0.18604   0.25552   0.00000  Uiso   1.00
C1717  C     0.32082   0.15868   0.27869   0.00000  Uiso   1.00
C1718  C     0.30711   0.15721   0.28420   0.00000  Uiso   1.00
N1719  N     0.26391   0.15677   0.27682   0.00000  Uiso   1.00
N1720  N     0.26276   0.17838   0.48314   0.00000  Uiso   1.00
H1721  H     0.28068   0.14389   0.31958   0.00000  Uiso   1.00
H1722  H     0.27730   0.20757   0.44085   0.00000  Uiso   1.00
H1723  H     0.32651   0.13898   0.29829   0.00000  Uiso   1.00
H1724  H     0.30342   0.13652   0.30758   0.00000  Uiso   1.00
C1725  C     0.34798   0.03174   0.33448   0.00000  Uiso   1.00
C1726  C     0.34983   0.06671   0.40517   0.00000  Uiso   1.00
C1727  C     0.34102   0.05333   0.36971   0.00000  Uiso   1.00
C1728  C     0.32622   0.06104   0.36948   0.00000  Uiso   1.00
C1729  C     0.30418   0.03368   0.34631   0.00000  Uiso   1.00
C1730  C     0.31789   0.03221   0.34080   0.00000  Uiso   1.00
N1731  N     0.36109   0.03177   0.34818   0.00000  Uiso   1.00
N1732  N     0.36224   0.05338   0.39186   0.00000  Uiso   1.00
H1733  H     0.34432   0.01889   0.30542   0.00000  Uiso   1.00
H1734  H     0.34770   0.08257   0.43415   0.00000  Uiso   1.00
H1735  H     0.29849   0.01398   0.32671   0.00000  Uiso   1.00
H1736  H     0.32158   0.01152   0.31742   0.00000  Uiso   1.00
C1737  C     0.47298   0.15674   0.33448   0.00000  Uiso   1.00
C1738  C     0.47483   0.19171   0.40517   0.00000  Uiso   1.00
C1739  C     0.46602   0.17833   0.36971   0.00000  Uiso   1.00
C1740  C     0.45122   0.18604   0.36948   0.00000  Uiso   1.00
C1741  C     0.42918   0.15868   0.34631   0.00000  Uiso   1.00
C1742  C     0.44289   0.15721   0.34080   0.00000  Uiso   1.00
N1743  N     0.48609   0.15677   0.34818   0.00000  Uiso   1.00
N1744  N     0.48724   0.17838   0.39186   0.00000  Uiso   1.00
H1745  H     0.46932   0.14389   0.30542   0.00000  Uiso   1.00
H1746  H     0.47270   0.20757   0.43415   0.00000  Uiso   1.00
H1747  H     0.42349   0.13898   0.32671   0.00000  Uiso   1.00
H1748  H     0.44658   0.13652   0.31742   0.00000  Uiso   1.00
C1749  C     0.34798   0.21826   0.45948   0.00000  Uiso   1.00
C1750  C     0.34983   0.18329   0.28017   0.00000  Uiso   1.00
C1751  C     0.34102   0.19667   0.49471   0.00000  Uiso   1.00
C1752  C     0.32622   0.18896   0.49448   0.00000  Uiso   1.00
C1753  C     0.30418   0.21632   0.47131   0.00000  Uiso   1.00
C1754  C     0.31789   0.21779   0.46580   0.00000  Uiso   1.00
N1755  N     0.36109   0.21823   0.47318   0.00000  Uiso   1.00
N1756  N     0.36224   0.19662   0.26686   0.00000  Uiso   1.00
H1757  H     0.34432   0.23111   0.43042   0.00000  Uiso   1.00
H1758  H     0.34770   0.16743   0.30915   0.00000  Uiso   1.00
H1759  H     0.29849   0.23602   0.45171   0.00000  Uiso   1.00
H1760  H     0.32158   0.23848   0.44242   0.00000  Uiso   1.00
C1761  C     0.47298   0.09326   0.45948   0.00000  Uiso   1.00
C1762  C     0.47483   0.05829   0.28017   0.00000  Uiso   1.00
C1763  C     0.46602   0.07167   0.49471   0.00000  Uiso   1.00
C1764  C     0.45122   0.06396   0.49448   0.00000  Uiso   1.00
C1765  C     0.42918   0.09132   0.47131   0.00000  Uiso   1.00
C1766  C     0.44289   0.09279   0.46580   0.00000  Uiso   1.00
N1767  N     0.48609   0.09323   0.47318   0.00000  Uiso   1.00
N1768  N     0.48724   0.07162   0.26686   0.00000  Uiso   1.00
H1769  H     0.46932   0.10611   0.43042   0.00000  Uiso   1.00
H1770  H     0.47270   0.04243   0.30915   0.00000  Uiso   1.00
H1771  H     0.42349   0.11102   0.45171   0.00000  Uiso   1.00
H1772  H     0.44658   0.11348   0.44242   0.00000  Uiso   1.00
C1773  C     0.40202   0.21826   0.41552   0.00000  Uiso   1.00
C1774  C     0.40017   0.18329   0.34483   0.00000  Uiso   1.00
C1775  C     0.40898   0.19667   0.38029   0.00000  Uiso   1.00
C1776  C     0.42378   0.18896   0.38052   0.00000  Uiso   1.00
C1777  C     0.44582   0.21632   0.40369   0.00000  Uiso   1.00
C1778  C     0.43211   0.21779   0.40920   0.00000  Uiso   1.00
N1779  N     0.38891   0.21823   0.40182   0.00000  Uiso   1.00
N1780  N     0.38776   0.19662   0.35814   0.00000  Uiso   1.00
H1781  H     0.40568   0.23111   0.44458   0.00000  Uiso   1.00
H1782  H     0.40230   0.16743   0.31585   0.00000  Uiso   1.00
H1783  H     0.45151   0.23602   0.42329   0.00000  Uiso   1.00
H1784  H     0.42842   0.23848   0.43258   0.00000  Uiso   1.00
C1785  C     0.27702   0.09326   0.41552   0.00000  Uiso   1.00
C1786  C     0.27517   0.05829   0.34483   0.00000  Uiso   1.00
C1787  C     0.28398   0.07167   0.38029   0.00000  Uiso   1.00
C1788  C     0.29878   0.06396   0.38052   0.00000  Uiso   1.00
C1789  C     0.32082   0.09132   0.40369   0.00000  Uiso   1.00
C1790  C     0.30711   0.09279   0.40920   0.00000  Uiso   1.00
N1791  N     0.26391   0.09323   0.40182   0.00000  Uiso   1.00
N1792  N     0.26276   0.07162   0.35814   0.00000  Uiso   1.00
H1793  H     0.28068   0.10611   0.44458   0.00000  Uiso   1.00
H1794  H     0.27730   0.04243   0.31585   0.00000  Uiso   1.00
H1795  H     0.32651   0.11102   0.42329   0.00000  Uiso   1.00
H1796  H     0.30342   0.11348   0.43258   0.00000  Uiso   1.00
Fe1797 Fe    0.37500   0.23961   0.31250   0.00000  Uiso   1.00
Fe1798 Fe    0.25000   0.11461   0.31250   0.00000  Uiso   1.00
Fe1799 Fe    0.37500   0.01039   0.43750   0.00000  Uiso   1.00
Fe1800 Fe    0.25000   0.13539   0.43750   0.00000  Uiso   1.00
C1801  C     0.65202   0.03174   0.29052   0.00000  Uiso   1.00
C1802  C     0.65017   0.06671   0.46983   0.00000  Uiso   1.00
C1803  C     0.65898   0.05333   0.25529   0.00000  Uiso   1.00
C1804  C     0.67378   0.06104   0.25552   0.00000  Uiso   1.00
C1805  C     0.69582   0.03368   0.27869   0.00000  Uiso   1.00
C1806  C     0.68211   0.03221   0.28420   0.00000  Uiso   1.00
N1807  N     0.63891   0.03177   0.27682   0.00000  Uiso   1.00
N1808  N     0.63776   0.05338   0.48314   0.00000  Uiso   1.00
H1809  H     0.65568   0.01889   0.31958   0.00000  Uiso   1.00
H1810  H     0.65230   0.08257   0.44085   0.00000  Uiso   1.00
H1811  H     0.70151   0.01398   0.29829   0.00000  Uiso   1.00
H1812  H     0.67842   0.01152   0.30758   0.00000  Uiso   1.00
C1813  C     0.52702   0.15674   0.29052   0.00000  Uiso   1.00
C1814  C     0.52517   0.19171   0.46983   0.00000  Uiso   1.00
C1815  C     0.53398   0.17833   0.25529   0.00000  Uiso   1.00
C1816  C     0.54878   0.18604   0.25552   0.00000  Uiso   1.00
C1817  C     0.57082   0.15868   0.27869   0.00000  Uiso   1.00
C1818  C     0.55711   0.15721   0.28420   0.00000  Uiso   1.00
N1819  N     0.51391   0.15677   0.27682   0.00000  Uiso   1.00
N1820  N     0.51276   0.17838   0.48314   0.00000  Uiso   1.00
H1821  H     0.53068   0.14389   0.31958   0.00000  Uiso   1.00
H1822  H     0.52730   0.20757   0.44085   0.00000  Uiso   1.00
H1823  H     0.57651   0.13898   0.29829   0.00000  Uiso   1.00
H1824  H     0.55342   0.13652   0.30758   0.00000  Uiso   1.00
C1825  C     0.59798   0.03174   0.33448   0.00000  Uiso   1.00
C1826  C     0.59983   0.06671   0.40517   0.00000  Uiso   1.00
C1827  C     0.59102   0.05333   0.36971   0.00000  Uiso   1.00
C1828  C     0.57622   0.06104   0.36948   0.00000  Uiso   1.00
C1829  C     0.55418   0.03368   0.34631   0.00000  Uiso   1.00
C1830  C     0.56789   0.03221   0.34080   0.00000  Uiso   1.00
N1831  N     0.61109   0.03177   0.34818   0.00000  Uiso   1.00
N1832  N     0.61224   0.05338   0.39186   0.00000  Uiso   1.00
H1833  H     0.59432   0.01889   0.30542   0.00000  Uiso   1.00
H1834  H     0.59770   0.08257   0.43415   0.00000  Uiso   1.00
H1835  H     0.54849   0.01398   0.32671   0.00000  Uiso   1.00
H1836  H     0.57158   0.01152   0.31742   0.00000  Uiso   1.00
C1837  C     0.72298   0.15674   0.33448   0.00000  Uiso   1.00
C1838  C     0.72483   0.19171   0.40517   0.00000  Uiso   1.00
C1839  C     0.71602   0.17833   0.36971   0.00000  Uiso   1.00
C1840  C     0.70122   0.18604   0.36948   0.00000  Uiso   1.00
C1841  C     0.67918   0.15868   0.34631   0.00000  Uiso   1.00
C1842  C     0.69289   0.15721   0.34080   0.00000  Uiso   1.00
N1843  N     0.73609   0.15677   0.34818   0.00000  Uiso   1.00
N1844  N     0.73724   0.17838   0.39186   0.00000  Uiso   1.00
H1845  H     0.71932   0.14389   0.30542   0.00000  Uiso   1.00
H1846  H     0.72270   0.20757   0.43415   0.00000  Uiso   1.00
H1847  H     0.67349   0.13898   0.32671   0.00000  Uiso   1.00
H1848  H     0.69658   0.13652   0.31742   0.00000  Uiso   1.00
C1849  C     0.59798   0.21826   0.45948   0.00000  Uiso   1.00
C1850  C     0.59983   0.18329   0.28017   0.00000  Uiso   1.00
C1851  C     0.59102   0.19667   0.49471   0.00000  Uiso   1.00
C1852  C     0.57622   0.18896   0.49448   0.00000  Uiso   1.00
C1853  C     0.55418   0.21632   0.47131   0.00000  Uiso   1.00
C1854  C     0.56789   0.21779   0.46580   0.00000  Uiso   1.00
N1855  N     0.61109   0.21823   0.47318   0.00000  Uiso   1.00
N1856  N     0.61224   0.19662   0.26686   0.00000  Uiso   1.00
H1857  H     0.59432   0.23111   0.43042   0.00000  Uiso   1.00
H1858  H     0.59770   0.16743   0.30915   0.00000  Uiso   1.00
H1859  H     0.54849   0.23602   0.45171   0.00000  Uiso   1.00
H1860  H     0.57158   0.23848   0.44242   0.00000  Uiso   1.00
C1861  C     0.72298   0.09326   0.45948   0.00000  Uiso   1.00
C1862  C     0.72483   0.05829   0.28017   0.00000  Uiso   1.00
C1863  C     0.71602   0.07167   0.49471   0.00000  Uiso   1.00
C1864  C     0.70122   0.06396   0.49448   0.00000  Uiso   1.00
C1865  C     0.67918   0.09132   0.47131   0.00000  Uiso   1.00
C1866  C     0.69289   0.09279   0.46580   0.00000  Uiso   1.00
N1867  N     0.73609   0.09323   0.47318   0.00000  Uiso   1.00
N1868  N     0.73724   0.07162   0.26686   0.00000  Uiso   1.00
H1869  H     0.71932   0.10611   0.43042   0.00000  Uiso   1.00
H1870  H     0.72270   0.04243   0.30915   0.00000  Uiso   1.00
H1871  H     0.67349   0.11102   0.45171   0.00000  Uiso   1.00
H1872  H     0.69658   0.11348   0.44242   0.00000  Uiso   1.00
C1873  C     0.65202   0.21826   0.41552   0.00000  Uiso   1.00
C1874  C     0.65017   0.18329   0.34483   0.00000  Uiso   1.00
C1875  C     0.65898   0.19667   0.38029   0.00000  Uiso   1.00
C1876  C     0.67378   0.18896   0.38052   0.00000  Uiso   1.00
C1877  C     0.69582   0.21632   0.40369   0.00000  Uiso   1.00
C1878  C     0.68211   0.21779   0.40920   0.00000  Uiso   1.00
N1879  N     0.63891   0.21823   0.40182   0.00000  Uiso   1.00
N1880  N     0.63776   0.19662   0.35814   0.00000  Uiso   1.00
H1881  H     0.65568   0.23111   0.44458   0.00000  Uiso   1.00
H1882  H     0.65230   0.16743   0.31585   0.00000  Uiso   1.00
H1883  H     0.70151   0.23602   0.42329   0.00000  Uiso   1.00
H1884  H     0.67842   0.23848   0.43258   0.00000  Uiso   1.00
C1885  C     0.52702   0.09326   0.41552   0.00000  Uiso   1.00
C1886  C     0.52517   0.05829   0.34483   0.00000  Uiso   1.00
C1887  C     0.53398   0.07167   0.38029   0.00000  Uiso   1.00
C1888  C     0.54878   0.06396   0.38052   0.00000  Uiso   1.00
C1889  C     0.57082   0.09132   0.40369   0.00000  Uiso   1.00
C1890  C     0.55711   0.09279   0.40920   0.00000  Uiso   1.00
N1891  N     0.51391   0.09323   0.40182   0.00000  Uiso   1.00
N1892  N     0.51276   0.07162   0.35814   0.00000  Uiso   1.00
H1893  H     0.53068   0.10611   0.44458   0.00000  Uiso   1.00
H1894  H     0.52730   0.04243   0.31585   0.00000  Uiso   1.00
H1895  H     0.57651   0.11102   0.42329   0.00000  Uiso   1.00
H1896  H     0.55342   0.11348   0.43258   0.00000  Uiso   1.00
Fe1897 Fe    0.62500   0.23961   0.31250   0.00000  Uiso   1.00
Fe1898 Fe    0.50000   0.11461   0.31250   0.00000  Uiso   1.00
Fe1899 Fe    0.62500   0.01039   0.43750   0.00000  Uiso   1.00
Fe1900 Fe    0.50000   0.13539   0.43750   0.00000  Uiso   1.00
C1901  C     0.90202   0.03174   0.29052   0.00000  Uiso   1.00
C1902  C     0.90017   0.06671   0.46983   0.00000  Uiso   1.00
C1903  C     0.90898   0.05333   0.25529   0.00000  Uiso   1.00
C1904  C     0.92378   0.06104   0.25552   0.00000  Uiso   1.00
C1905  C     0.94582   0.03368   0.27869   0.00000  Uiso   1.00
C1906  C     0.93211   0.03221   0.28420   0.00000  Uiso   1.00
N1907  N     0.88891   0.03177   0.27682   0.00000  Uiso   1.00
N1908  N     0.88776   0.05338   0.48314   0.00000  Uiso   1.00
H1909  H     0.90568   0.01889   0.31958   0.00000  Uiso   1.00
H1910  H     0.90230   0.08257   0.44085   0.00000  Uiso   1.00
H1911  H     0.95151   0.01398   0.29829   0.00000  Uiso   1.00
H1912  H     0.92842   0.01152   0.30758   0.00000  Uiso   1.00
C1913  C     0.77702   0.15674   0.29052   0.00000  Uiso   1.00
C1914  C     0.77517   0.19171   0.46983   0.00000  Uiso   1.00
C1915  C     0.78398   0.17833   0.25529   0.00000  Uiso   1.00
C1916  C     0.79878   0.18604   0.25552   0.00000  Uiso   1.00
C1917  C     0.82082   0.15868   0.27869   0.00000  Uiso   1.00
C1918  C     0.80711   0.15721   0.28420   0.00000  Uiso   1.00
N1919  N     0.76391   0.15677   0.27682   0.00000  Uiso   1.00
N1920  N     0.76276   0.17838   0.48314   0.00000  Uiso   1.00
H1921  H     0.78068   0.14389   0.31958   0.00000  Uiso   1.00
H1922  H     0.77730   0.20757   0.44085   0.00000  Uiso   1.00
H1923  H     0.82651   0.13898   0.29829   0.00000  Uiso   1.00
H1924  H     0.80342   0.13652   0.30758   0.00000  Uiso   1.00
C1925  C     0.84798   0.03174   0.33448   0.00000  Uiso   1.00
C1926  C     0.84983   0.06671   0.40517   0.00000  Uiso   1.00
C1927  C     0.84102   0.05333   0.36971   0.00000  Uiso   1.00
C1928  C     0.82622   0.06104   0.36948   0.00000  Uiso   1.00
C1929  C     0.80418   0.03368   0.34631   0.00000  Uiso   1.00
C1930  C     0.81789   0.03221   0.34080   0.00000  Uiso   1.00
N1931  N     0.86109   0.03177   0.34818   0.00000  Uiso   1.00
N1932  N     0.86224   0.05338   0.39186   0.00000  Uiso   1.00
H1933  H     0.84432   0.01889   0.30542   0.00000  Uiso   1.00
H1934  H     0.84770   0.08257   0.43415   0.00000  Uiso   1.00
H1935  H     0.79849   0.01398   0.32671   0.00000  Uiso   1.00
H1936  H     0.82158   0.01152   0.31742   0.00000  Uiso   1.00
C1937  C     0.97298   0.15674   0.33448   0.00000  Uiso   1.00
C1938  C     0.97483   0.19171   0.40517   0.00000  Uiso   1.00
C1939  C     0.96602   0.17833   0.36971   0.00000  Uiso   1.00
C1940  C     0.95122   0.18604   0.36948   0.00000  Uiso   1.00
C1941  C     0.92918   0.15868   0.34631   0.00000  Uiso   1.00
C1942  C     0.94289   0.15721   0.34080   0.00000  Uiso   1.00
N1943  N     0.98609   0.15677   0.34818   0.00000  Uiso   1.00
N1944  N     0.98724   0.17838   0.39186   0.00000  Uiso   1.00
H1945  H     0.96932   0.14389   0.30542   0.00000  Uiso   1.00
H1946  H     0.97270   0.20757   0.43415   0.00000  Uiso   1.00
H1947  H     0.92349   0.13898   0.32671   0.00000  Uiso   1.00
H1948  H     0.94658   0.13652   0.31742   0.00000  Uiso   1.00
C1949  C     0.84798   0.21826   0.45948   0.00000  Uiso   1.00
C1950  C     0.84983   0.18329   0.28017   0.00000  Uiso   1.00
C1951  C     0.84102   0.19667   0.49471   0.00000  Uiso   1.00
C1952  C     0.82622   0.18896   0.49448   0.00000  Uiso   1.00
C1953  C     0.80418   0.21632   0.47131   0.00000  Uiso   1.00
C1954  C     0.81789   0.21779   0.46580   0.00000  Uiso   1.00
N1955  N     0.86109   0.21823   0.47318   0.00000  Uiso   1.00
N1956  N     0.86224   0.19662   0.26686   0.00000  Uiso   1.00
H1957  H     0.84432   0.23111   0.43042   0.00000  Uiso   1.00
H1958  H     0.84770   0.16743   0.30915   0.00000  Uiso   1.00
H1959  H     0.79849   0.23602   0.45171   0.00000  Uiso   1.00
H1960  H     0.82158   0.23848   0.44242   0.00000  Uiso   1.00
C1961  C     0.97298   0.09326   0.45948   0.00000  Uiso   1.00
C1962  C     0.97483   0.05829   0.28017   0.00000  Uiso   1.00
C1963  C     0.96602   0.07167   0.49471   0.00000  Uiso   1.00
C1964  C     0.95122   0.06396   0.49448   0.00000  Uiso   1.00
C1965  C     0.92918   0.09132   0.47131   0.00000  Uiso   1.00
C1966  C     0.94289   0.09279   0.46580   0.00000  Uiso   1.00
N1967  N     0.98609   0.09323   0.47318   0.00000  Uiso   1.00
N1968  N     0.98724   0.07162   0.26686   0.00000  Uiso   1.00
H1969  H     0.96932   0.10611   0.43042   0.00000  Uiso   1.00
H1970  H     0.97270   0.04243   0.30915   0.00000  Uiso   1.00
H1971  H     0.92349   0.11102   0.45171   0.00000  Uiso   1.00
H1972  H     0.94658   0.11348   0.44242   0.00000  Uiso   1.00
C1973  C     0.90202   0.21826   0.41552   0.00000  Uiso   1.00
C1974  C     0.90017   0.18329   0.34483   0.00000  Uiso   1.00
C1975  C     0.90898   0.19667   0.38029   0.00000  Uiso   1.00
C1976  C     0.92378   0.18896   0.38052   0.00000  Uiso   1.00
C1977  C     0.94582   0.21632   0.40369   0.00000  Uiso   1.00
C1978  C     0.93211   0.21779   0.40920   0.00000  Uiso   1.00
N1979  N     0.88891   0.21823   0.40182   0.00000  Uiso   1.00
N1980  N     0.88776   0.19662   0.35814   0.00000  Uiso   1.00
H1981  H     0.90568   0.23111   0.44458   0.00000  Uiso   1.00
H1982  H     0.90230   0.16743   0.31585   0.00000  Uiso   1.00
H1983  H     0.95151   0.23602   0.42329   0.00000  Uiso   1.00
H1984  H     0.92842   0.23848   0.43258   0.00000  Uiso   1.00
C1985  C     0.77702   0.09326   0.41552   0.00000  Uiso   1.00
C1986  C     0.77517   0.05829   0.34483   0.00000  Uiso   1.00
C1987  C     0.78398   0.07167   0.38029   0.00000  Uiso   1.00
C1988  C     0.79878   0.06396   0.38052   0.00000  Uiso   1.00
C1989  C     0.82082   0.09132   0.40369   0.00000  Uiso   1.00
C1990  C     0.80711   0.09279   0.40920   0.00000  Uiso   1.00
N1991  N     0.76391   0.09323   0.40182   0.00000  Uiso   1.00
N1992  N     0.76276   0.07162   0.35814   0.00000  Uiso   1.00
H1993  H     0.78068   0.10611   0.44458   0.00000  Uiso   1.00
H1994  H     0.77730   0.04243   0.31585   0.00000  Uiso   1.00
H1995  H     0.82651   0.11102   0.42329   0.00000  Uiso   1.00
H1996  H     0.80342   0.11348   0.43258   0.00000  Uiso   1.00
Fe1997 Fe    0.87500   0.23961   0.31250   0.00000  Uiso   1.00
Fe1998 Fe    0.75000   0.11461   0.31250   0.00000  Uiso   1.00
Fe1999 Fe    0.87500   0.01039   0.43750   0.00000  Uiso   1.00
Fe2000 Fe    0.75000   0.13539   0.43750   0.00000  Uiso   1.00
C2001  C     0.15202   0.28174   0.29052   0.00000  Uiso   1.00
C2002  C     0.15017   0.31671   0.46983   0.00000  Uiso   1.00
C2003  C     0.15898   0.30333   0.25529   0.00000  Uiso   1.00
C2004  C     0.17378   0.31104   0.25552   0.00000  Uiso   1.00
C2005  C     0.19582   0.28368   0.27869   0.00000  Uiso   1.00
C2006  C     0.18211   0.28221   0.28420   0.00000  Uiso   1.00
N2007  N     0.13891   0.28177   0.27682   0.00000  Uiso   1.00
N2008  N     0.13776   0.30338   0.48314   0.00000  Uiso   1.00
H2009  H     0.15568   0.26889   0.31958   0.00000  Uiso   1.00
H2010  H     0.15230   0.33257   0.44085   0.00000  Uiso   1.00
H2011  H     0.20151   0.26398   0.29829   0.00000  Uiso   1.00
H2012  H     0.17842   0.26152   0.30758   0.00000  Uiso   1.00
C2013  C     0.02702   0.40674   0.29052   0.00000  Uiso   1.00
C2014  C     0.02517   0.44171   0.46983   0.00000  Uiso   1.00
C2015  C     0.03398   0.42833   0.25529   0.00000  Uiso   1.00
C2016  C     0.04878   0.43604   0.25552   0.00000  Uiso   1.00
C2017  C     0.07082   0.40868   0.27869   0.00000  Uiso   1.00
C2018  C     0.05711   0.40721   0.28420   0.00000  Uiso   1.00
N2019  N     0.01391   0.40677   0.27682   0.00000  Uiso   1.00
N2020  N     0.01276   0.42838   0.48314   0.00000  Uiso   1.00
H2021  H     0.03068   0.39389   0.31958   0.00000  Uiso   1.00
H2022  H     0.02730   0.45757   0.44085   0.00000  Uiso   1.00
H2023  H     0.07651   0.38898   0.29829   0.00000  Uiso   1.00
H2024  H     0.05342   0.38652   0.30758   0.00000  Uiso   1.00
C2025  C     0.09798   0.28174   0.33448   0.00000  Uiso   1.00
C2026  C     0.09983   0.31671   0.40517   0.00000  Uiso   1.00
C2027  C     0.09102   0.30333   0.36971   0.00000  Uiso   1.00
C2028  C     0.07622   0.31104   0.36948   0.00000  Uiso   1.00
C2029  C     0.05418   0.28368   0.34631   0.00000  Uiso   1.00
C2030  C     0.06789   0.28221   0.34080   0.00000  Uiso   1.00
N2031  N     0.11109   0.28177   0.34818   0.00000  Uiso   1.00
N2032  N     0.11224   0.30338   0.39186   0.00000  Uiso   1.00
H2033  H     0.09432   0.26889   0.30542   0.00000  Uiso   1.00
H2034  H     0.09770   0.33257   0.43415   0.00000  Uiso   1.00
H2035  H     0.04849   0.26398   0.32671   0.00000  Uiso   1.00
H2036  H     0.07158   0.26152   0.31742   0.00000  Uiso   1.00
C2037  C     0.22298   0.40674   0.33448   0.00000  Uiso   1.00
C2038  C     0.22483   0.44171   0.40517   0.00000  Uiso   1.00
C2039  C     0.21602   0.42833   0.36971   0.00000  Uiso   1.00
C2040  C     0.20122   0.43604   0.36948   0.00000  Uiso   1.00
C2041  C     0.17918   0.40868   0.34631   0.00000  Uiso   1.00
C2042  C     0.19289   0.40721   0.34080   0.00000  Uiso   1.00
N2043  N     0.23609   0.40677   0.34818   0.00000  Uiso   1.00
N2044  N     0.23724   0.42838   0.39186   0.00000  Uiso   1.00
H2045  H     0.21932   0.39389   0.30542   0.00000  Uiso   1.00
H2046  H     0.22270   0.45757   0.43415   0.00000  Uiso   1.00
H2047  H     0.17349   0.38898   0.32671   0.00000  Uiso   1.00
H2048  H     0.19658   0.38652   0.31742   0.00000  Uiso   1.00
C2049  C     0.09798   0.46826   0.45948   0.00000  Uiso   1.00
C2050  C     0.09983   0.43329   0.28017   0.00000  Uiso   1.00
C2051  C     0.09102   0.44667   0.49471   0.00000  Uiso   1.00
C2052  C     0.07622   0.43896   0.49448   0.00000  Uiso   1.00
C2053  C     0.05418   0.46632   0.47131   0.00000  Uiso   1.00
C2054  C     0.06789   0.46779   0.46580   0.00000  Uiso   1.00
N2055  N     0.11109   0.46823   0.47318   0.00000  Uiso   1.00
N2056  N     0.11224   0.44662   0.26686   0.00000  Uiso   1.00
H2057  H     0.09432   0.48111   0.43042   0.00000  Uiso   1.00
H2058  H     0.09770   0.41743   0.30915   0.00000  Uiso   1.00
H2059  H     0.04849   0.48602   0.45171   0.00000  Uiso   1.00
H2060  H     0.07158   0.48848   0.44242   0.00000  Uiso   1.00
C2061  C     0.22298   0.34326   0.45948   0.00000  Uiso   1.00
C2062  C     0.22483   0.30829   0.28017   0.00000  Uiso   1.00
C2063  C     0.21602   0.32167   0.49471   0.00000  Uiso   1.00
C2064  C     0.20122   0.31396   0.49448   0.00000  Uiso   1.00
C2065  C     0.17918   0.34132   0.47131   0.00000  Uiso   1.00
C2066  C     0.19289   0.34279   0.46580   0.00000  Uiso   1.00
N2067  N     0.23609   0.34323   0.47318   0.00000  Uiso   1.00
N2068  N     0.23724   0.32162   0.26686   0.00000  Uiso   1.00
H2069  H     0.21932   0.35611   0.43042   0.00000  Uiso   1.00
H2070  H     0.22270   0.29243   0.30915   0.00000  Uiso   1.00
H2071  H     0.17349   0.36102   0.45171   0.00000  Uiso   1.00
H2072  H     0.19658   0.36348   0.44242   0.00000  Uiso   1.00
C2073  C     0.15202   0.46826   0.41552   0.00000  Uiso   1.00
C2074  C     0.15017   0.43329   0.34483   0.00000  Uiso   1.00
C2075  C     0.15898   0.44667   0.38029   0.00000  Uiso   1.00
C2076  C     0.17378   0.43896   0.38052   0.00000  Uiso   1.00
C2077  C     0.19582   0.46632   0.40369   0.00000  Uiso   1.00
C2078  C     0.18211   0.46779   0.40920   0.00000  Uiso   1.00
N2079  N     0.13891   0.46823   0.40182   0.00000  Uiso   1.00
N2080  N     0.13776   0.44662   0.35814   0.00000  Uiso   1.00
H2081  H     0.15568   0.48111   0.44458   0.00000  Uiso   1.00
H2082  H     0.15230   0.41743   0.31585   0.00000  Uiso   1.00
H2083  H     0.20151   0.48602   0.42329   0.00000  Uiso   1.00
H2084  H     0.17842   0.48848   0.43258   0.00000  Uiso   1.00
C2085  C     0.02702   0.34326   0.41552   0.00000  Uiso   1.00
C2086  C     0.02517   0.30829   0.34483   0.00000  Uiso   1.00
C2087  C     0.03398   0.32167   0.38029   0.00000  Uiso   1.00
C2088  C     0.04878   0.31396   0.38052   0.00000  Uiso   1.00
C2089  C     0.07082   0.34132   0.40369   0.00000  Uiso   1.00
C2090  C     0.05711   0.34279   0.40920   0.00000  Uiso   1.00
N2091  N     0.01391   0.34323   0.40182   0.00000  Uiso   1.00
N2092  N     0.01276   0.32162   0.35814   0.00000  Uiso   1.00
H2093  H     0.03068   0.35611   0.44458   0.00000  Uiso   1.00
H2094  H     0.02730   0.29243   0.31585   0.00000  Uiso   1.00
H2095  H     0.07651   0.36102   0.42329   0.00000  Uiso   1.00
H2096  H     0.05342   0.36348   0.43258   0.00000  Uiso   1.00
Fe2097 Fe    0.12500   0.48961   0.31250   0.00000  Uiso   1.00
Fe2098 Fe    0.00000   0.36461   0.31250   0.00000  Uiso   1.00
Fe2099 Fe    0.12500   0.26039   0.43750   0.00000  Uiso   1.00
Fe2100 Fe   -0.00000   0.38539   0.43750   0.00000  Uiso   1.00
C2101  C     0.40202   0.28174   0.29052   0.00000  Uiso   1.00
C2102  C     0.40017   0.31671   0.46983   0.00000  Uiso   1.00
C2103  C     0.40898   0.30333   0.25529   0.00000  Uiso   1.00
C2104  C     0.42378   0.31104   0.25552   0.00000  Uiso   1.00
C2105  C     0.44582   0.28368   0.27869   0.00000  Uiso   1.00
C2106  C     0.43211   0.28221   0.28420   0.00000  Uiso   1.00
N2107  N     0.38891   0.28177   0.27682   0.00000  Uiso   1.00
N2108  N     0.38776   0.30338   0.48314   0.00000  Uiso   1.00
H2109  H     0.40568   0.26889   0.31958   0.00000  Uiso   1.00
H2110  H     0.40230   0.33257   0.44085   0.00000  Uiso   1.00
H2111  H     0.45151   0.26398   0.29829   0.00000  Uiso   1.00
H2112  H     0.42842   0.26152   0.30758   0.00000  Uiso   1.00
C2113  C     0.27702   0.40674   0.29052   0.00000  Uiso   1.00
C2114  C     0.27517   0.44171   0.46983   0.00000  Uiso   1.00
C2115  C     0.28398   0.42833   0.25529   0.00000  Uiso   1.00
C2116  C     0.29878   0.43604   0.25552   0.00000  Uiso   1.00
C2117  C     0.32082   0.40868   0.27869   0.00000  Uiso   1.00
C2118  C     0.30711   0.40721   0.28420   0.00000  Uiso   1.00
N2119  N     0.26391   0.40677   0.27682   0.00000  Uiso   1.00
N2120  N     0.26276   0.42838   0.48314   0.00000  Uiso   1.00
H2121  H     0.28068   0.39389   0.31958   0.00000  Uiso   1.00
H2122  H     0.27730   0.45757   0.44085   0.00000  Uiso   1.00
H2123  H     0.32651   0.38898   0.29829   0.00000  Uiso   1.00
H2124  H     0.30342   0.38652   0.30758   0.00000  Uiso   1.00
C2125  C     0.34798   0.28174   0.33448   0.00000  Uiso   1.00
C2126  C     0.34983   0.31671   0.40517   0.00000  Uiso   1.00
C2127  C     0.34102   0.30333   0.36971   0.00000  Uiso   1.00
C2128  C     0.32622   0.31104   0.36948   0.00000  Uiso   1.00
C2129  C     0.30418   0.28368   0.34631   0.00000  Uiso   1.00
C2130  C     0.31789   0.28221   0.34080   0.00000  Uiso   1.00
N2131  N     0.36109   0.28177   0.34818   0.00000  Uiso   1.00
N2132  N     0.36224   0.30338   0.39186   0.00000  Uiso   1.00
H2133  H     0.34432   0.26889   0.30542   0.00000  Uiso   1.00
H2134  H     0.34770   0.33257   0.43415   0.00000  Uiso   1.00
H2135  H     0.29849   0.26398   0.32671   0.00000  Uiso   1.00
H2136  H     0.32158   0.26152   0.31742   0.00000  Uiso   1.00
C2137  C     0.47298   0.40674   0.33448   0.00000  Uiso   1.00
C2138  C     0.47483   0.44171   0.40517   0.00000  Uiso   1.00
C2139  C     0.46602   0.42833   0.36971   0.00000  Uiso   1.00
C2140  C     0.45122   0.43604   0.36948   0.00000  Uiso   1.00
C2141  C     0.42918   0.40868   0.34631   0.00000  Uiso   1.00
C2142  C     0.44289   0.40721   0.34080   0.00000  Uiso   1.00
N2143  N     0.48609   0.40677   0.34818   0.00000  Uiso   1.00
N2144  N     0.48724   0.42838   0.39186   0.00000  Uiso   1.00
H2145  H     0.46932   0.39389   0.30542   0.00000  Uiso   1.00
H2146  H     0.47270   0.45757   0.43415   0.00000  Uiso   1.00
H2147  H     0.42349   0.38898   0.32671   0.00000  Uiso   1.00
H2148  H     0.44658   0.38652   0.31742   0.00000  Uiso   1.00
C2149  C     0.34798   0.46826   0.45948   0.00000  Uiso   1.00
C2150  C     0.34983   0.43329   0.28017   0.00000  Uiso   1.00
C2151  C     0.34102   0.44667   0.49471   0.00000  Uiso   1.00
C2152  C     0.32622   0.43896   0.49448   0.00000  Uiso   1.00
C2153  C     0.30418   0.46632   0.47131   0.00000  Uiso   1.00
C2154  C     0.31789   0.46779   0.46580   0.00000  Uiso   1.00
N2155  N     0.36109   0.46823   0.47318   0.00000  Uiso   1.00
N2156  N     0.36224   0.44662   0.26686   0.00000  Uiso   1.00
H2157  H     0.34432   0.48111   0.43042   0.00000  Uiso   1.00
H2158  H     0.34770   0.41743   0.30915   0.00000  Uiso   1.00
H2159  H     0.29849   0.48602   0.45171   0.00000  Uiso   1.00
H2160  H     0.32158   0.48848   0.44242   0.00000  Uiso   1.00
C2161  C     0.47298   0.34326   0.45948   0.00000  Uiso   1.00
C2162  C     0.47483   0.30829   0.28017   0.00000  Uiso   1.00
C2163  C     0.46602   0.32167   0.49471   0.00000  Uiso   1.00
C2164  C     0.45122   0.31396   0.49448   0.00000  Uiso   1.00
C2165  C     0.42918   0.34132   0.47131   0.00000  Uiso   1.00
C2166  C     0.44289   0.34279   0.46580   0.00000  Uiso   1.00
N2167  N     0.48609   0.34323   0.47318   0.00000  Uiso   1.00
N2168  N     0.48724   0.32162   0.26686   0.00000  Uiso   1.00
H2169  H     0.46932   0.35611   0.43042   0.00000  Uiso   1.00
H2170  H     0.47270   0.29243   0.30915   0.00000  Uiso   1.00
H2171  H     0.42349   0.36102   0.45171   0.00000  Uiso   1.00
H2172  H     0.44658   0.36348   0.44242   0.00000  Uiso   1.00
C2173  C     0.40202   0.46826   0.41552   0.00000  Uiso   1.00
C2174  C     0.40017   0.43329   0.34483   0.00000  Uiso   1.00
C2175  C     0.40898   0.44667   0.38029   0.00000  Uiso   1.00
C2176  C     0.42378   0.43896   0.38052   0.00000  Uiso   1.00
C2177  C     0.44582   0.46632   0.40369   0.00000  Uiso   1.00
C2178  C     0.43211   0.46779   0.40920   0.00000  Uiso   1.00
N2179  N     0.38891   0.46823   0.40182   0.00000  Uiso   1.00
N2180  N     0.38776   0.44662   0.35814   0.00000  Uiso   1.00
H2181  H     0.40568   0.48111   0.44458   0.00000  Uiso   1.00
H2182  H     0.40230   0.41743   0.31585   0.00000  Uiso   1.00
H2183  H     0.45151   0.48602   0.42329   0.00000  Uiso   1.00
H2184  H     0.42842   0.48848   0.43258   0.00000  Uiso   1.00
C2185  C     0.27702   0.34326   0.41552   0.00000  Uiso   1.00
C2186  C     0.27517   0.30829   0.34483   0.00000  Uiso   1.00
C2187  C     0.28398   0.32167   0.38029   0.00000  Uiso   1.00
C2188  C     0.29878   0.31396   0.38052   0.00000  Uiso   1.00
C2189  C     0.32082   0.34132   0.40369   0.00000  Uiso   1.00
C2190  C     0.30711   0.34279   0.40920   0.00000  Uiso   1.00
N2191  N     0.26391   0.34323   0.40182   0.00000  Uiso   1.00
N2192  N     0.26276   0.32162   0.35814   0.00000  Uiso   1.00
H2193  H     0.28068   0.35611   0.44458   0.00000  Uiso   1.00
H2194  H     0.27730   0.29243   0.31585   0.00000  Uiso   1.00
H2195  H     0.32651   0.36102   0.42329   0.00000  Uiso   1.00
H2196  H     0.30342   0.36348   0.43258   0.00000  Uiso   1.00
Fe2197 Fe    0.37500   0.48961   0.31250   0.00000  Uiso   1.00
Fe2198 Fe    0.25000   0.36461   0.31250   0.00000  Uiso   1.00
Fe2199 Fe    0.37500   0.26039   0.43750   0.00000  Uiso   1.00
Fe2200 Fe    0.25000   0.38539   0.43750   0.00000  Uiso   1.00
C2201  C     0.65202   0.28174   0.29052   0.00000  Uiso   1.00
C2202  C     0.65017   0.31671   0.46983   0.00000  Uiso   1.00
C2203  C     0.65898   0.30333   0.25529   0.00000  Uiso   1.00
C2204  C     0.67378   0.31104   0.25552   0.00000  Uiso   1.00
C2205  C     0.69582   0.28368   0.27869   0.00000  Uiso   1.00
C2206  C     0.68211   0.28221   0.28420   0.00000  Uiso   1.00
N2207  N     0.63891   0.28177   0.27682   0.00000  Uiso   1.00
N2208  N     0.63776   0.30338   0.48314   0.00000  Uiso   1.00
H2209  H     0.65568   0.26889   0.31958   0.00000  Uiso   1.00
H2210  H     0.65230   0.33257   0.44085   0.00000  Uiso   1.00
H2211  H     0.70151   0.26398   0.29829   0.00000  Uiso   1.00
H2212  H     0.67842   0.26152   0.30758   0.00000  Uiso   1.00
C2213  C     0.52702   0.40674   0.29052   0.00000  Uiso   1.00
C2214  C     0.52517   0.44171   0.46983   0.00000  Uiso   1.00
C2215  C     0.53398   0.42833   0.25529   0.00000  Uiso   1.00
C2216  C     0.54878   0.43604   0.25552   0.00000  Uiso   1.00
C2217  C     0.57082   0.40868   0.27869   0.00000  Uiso   1.00
C2218  C     0.55711   0.40721   0.28420   0.00000  Uiso   1.00
N2219  N     0.51391   0.40677   0.27682   0.00000  Uiso   1.00
N2220  N     0.51276   0.42838   0.48314   0.00000  Uiso   1.00
H2221  H     0.53068   0.39389   0.31958   0.00000  Uiso   1.00
H2222  H     0.52730   0.45757   0.44085   0.00000  Uiso   1.00
H2223  H     0.57651   0.38898   0.29829   0.00000  Uiso   1.00
H2224  H     0.55342   0.38652   0.30758   0.00000  Uiso   1.00
C2225  C     0.59798   0.28174   0.33448   0.00000  Uiso   1.00
C2226  C     0.59983   0.31671   0.40517   0.00000  Uiso   1.00
C2227  C     0.59102   0.30333   0.36971   0.00000  Uiso   1.00
C2228  C     0.57622   0.31104   0.36948   0.00000  Uiso   1.00
C2229  C     0.55418   0.28368   0.34631   0.00000  Uiso   1.00
C2230  C     0.56789   0.28221   0.34080   0.00000  Uiso   1.00
N2231  N     0.61109   0.28177   0.34818   0.00000  Uiso   1.00
N2232  N     0.61224   0.30338   0.39186   0.00000  Uiso   1.00
H2233  H     0.59432   0.26889   0.30542   0.00000  Uiso   1.00
H2234  H     0.59770   0.33257   0.43415   0.00000  Uiso   1.00
H2235  H     0.54849   0.26398   0.32671   0.00000  Uiso   1.00
H2236  H     0.57158   0.26152   0.31742   0.00000  Uiso   1.00
C2237  C     0.72298   0.40674   0.33448   0.00000  Uiso   1.00
C2238  C     0.72483   0.44171   0.40517   0.00000  Uiso   1.00
C2239  C     0.71602   0.42833   0.36971   0.00000  Uiso   1.00
C2240  C     0.70122   0.43604   0.36948   0.00000  Uiso   1.00
C2241  C     0.67918   0.40868   0.34631   0.00000  Uiso   1.00
C2242  C     0.69289   0.40721   0.34080   0.00000  Uiso   1.00
N2243  N     0.73609   0.40677   0.34818   0.00000  Uiso   1.00
N2244  N     0.73724   0.42838   0.39186   0.00000  Uiso   1.00
H2245  H     0.71932   0.39389   0.30542   0.00000  Uiso   1.00
H2246  H     0.72270   0.45757   0.43415   0.00000  Uiso   1.00
H2247  H     0.67349   0.38898   0.32671   0.00000  Uiso   1.00
H2248  H     0.69658   0.38652   0.31742   0.00000  Uiso   1.00
C2249  C     0.59798   0.46826   0.45948   0.00000  Uiso   1.00
C2250  C     0.59983   0.43329   0.28017   0.00000  Uiso   1.00
C2251  C     0.59102   0.44667   0.49471   0.00000  Uiso   1.00
C2252  C     0.57622   0.43896   0.49448   0.00000  Uiso   1.00
C2253  C     0.55418   0.46632   0.47131   0.00000  Uiso   1.00
C2254  C     0.56789   0.46779   0.46580   0.00000  Uiso   1.00
N2255  N     0.61109   0.46823   0.47318   0.00000  Uiso   1.00
N2256  N     0.61224   0.44662   0.26686   0.00000  Uiso   1.00
H2257  H     0.59432   0.48111   0.43042   0.00000  Uiso   1.00
H2258  H     0.59770   0.41743   0.30915   0.00000  Uiso   1.00
H2259  H     0.54849   0.48602   0.45171   0.00000  Uiso   1.00
H2260  H     0.57158   0.48848   0.44242   0.00000  Uiso   1.00
C2261  C     0.72298   0.34326   0.45948   0.00000  Uiso   1.00
C2262  C     0.72483   0.30829   0.28017   0.00000  Uiso   1.00
C2263  C     0.71602   0.32167   0.49471   0.00000  Uiso   1.00
C2264  C     0.70122   0.31396   0.49448   0.00000  Uiso   1.00
C2265  C     0.67918   0.34132   0.47131   0.00000  Uiso   1.00
C2266  C     0.69289   0.34279   0.46580   0.00000  Uiso   1.00
N2267  N     0.73609   0.34323   0.47318   0.00000  Uiso   1.00
N2268  N     0.73724   0.32162   0.26686   0.00000  Uiso   1.00
H2269  H     0.71932   0.35611   0.43042   0.00000  Uiso   1.00
H2270  H     0.72270   0.29243   0.30915   0.00000  Uiso   1.00
H2271  H     0.67349   0.36102   0.45171   0.00000  Uiso   1.00
H2272  H     0.69658   0.36348   0.44242   0.00000  Uiso   1.00
C2273  C     0.65202   0.46826   0.41552   0.00000  Uiso   1.00
C2274  C     0.65017   0.43329   0.34483   0.00000  Uiso   1.00
C2275  C     0.65898   0.44667   0.38029   0.00000  Uiso   1.00
C2276  C     0.67378   0.43896   0.38052   0.00000  Uiso   1.00
C2277  C     0.69582   0.46632   0.40369   0.00000  Uiso   1.00
C2278  C     0.68211   0.46779   0.40920   0.00000  Uiso   1.00
N2279  N     0.63891   0.46823   0.40182   0.00000  Uiso   1.00
N2280  N     0.63776   0.44662   0.35814   0.00000  Uiso   1.00
H2281  H     0.65568   0.48111   0.44458   0.00000  Uiso   1.00
H2282  H     0.65230   0.41743   0.31585   0.00000  Uiso   1.00
H2283  H     0.70151   0.48602   0.42329   0.00000  Uiso   1.00
H2284  H     0.67842   0.48848   0.43258   0.00000  Uiso   1.00
C2285  C     0.52702   0.34326   0.41552   0.00000  Uiso   1.00
C2286  C     0.52517   0.30829   0.34483   0.00000  Uiso   1.00
C2287  C     0.53398   0.32167   0.38029   0.00000  Uiso   1.00
C2288  C     0.54878   0.31396   0.38052   0.00000  Uiso   1.00
C2289  C     0.57082   0.34132   0.40369   0.00000  Uiso   1.00
C2290  C     0.55711   0.34279   0.40920   0.00000  Uiso   1.00
N2291  N     0.51391   0.34323   0.40182   0.00000  Uiso   1.00
N2292  N     0.51276   0.32162   0.35814   0.00000  Uiso   1.00
H2293  H     0.53068   0.35611   0.44458   0.00000  Uiso   1.00
H2294  H     0.52730   0.29243   0.31585   0.00000  Uiso   1.00
H2295  H     0.57651   0.36102   0.42329   0.00000  Uiso   1.00
H2296  H     0.55342   0.36348   0.43258   0.00000  Uiso   1.00
Fe2297 Fe    0.62500   0.48961   0.31250   0.00000  Uiso   1.00
Fe2298 Fe    0.50000   0.36461   0.31250   0.00000  Uiso   1.00
Fe2299 Fe    0.62500   0.26039   0.43750   0.00000  Uiso   1.00
Fe2300 Fe    0.50000   0.38539   0.43750   0.00000  Uiso   1.00
C2301  C     0.90202   0.28174   0.29052   0.00000  Uiso   1.00
C2302  C     0.90017   0.31671   0.46983   0.00000  Uiso   1.00
C2303  C     0.90898   0.30333   0.25529   0.00000  Uiso   1.00
C2304  C     0.92378   0.31104   0.25552   0.00000  Uiso   1.00
C2305  C     0.94582   0.28368   0.27869   0.00000  Uiso   1.00
C2306  C     0.93211   0.28221   0.28420   0.00000  Uiso   1.00
N2307  N     0.88891   0.28177   0.27682   0.00000  Uiso   1.00
N2308  N     0.88776   0.30338   0.48314   0.00000  Uiso   1.00
H2309  H     0.90568   0.26889   0.31958   0.00000  Uiso   1.00
H2310  H     0.90230   0.33257   0.44085   0.00000  Uiso   1.00
H2311  H     0.95151   0.26398   0.29829   0.00000  Uiso   1.00
H2312  H     0.92842   0.26152   0.30758   0.00000  Uiso   1.00
C2313  C     0.77702   0.40674   0.29052   0.00000  Uiso   1.00
C2314  C     0.77517   0.44171   0.46983   0.00000  Uiso   1.00
C2315  C     0.78398   0.42833   0.25529   0.00000  Uiso   1.00
C2316  C     0.79878   0.43604   0.25552   0.00000  Uiso   1.00
C2317  C     0.82082   0.40868   0.27869   0.00000  Uiso   1.00
C2318  C     0.80711   0.40721   0.28420   0.00000  Uiso   1.00
N2319  N     0.76391   0.40677   0.27682   0.00000  Uiso   1.00
N2320  N     0.76276   0.42838   0.48314   0.00000  Uiso   1.00
H2321  H     0.78068   0.39389   0.31958   0.00000  Uiso   1.00
H2322  H     0.77730   0.45757   0.44085   0.00000  Uiso   1.00
H2323  H     0.82651   0.38898   0.29829   0.00000  Uiso   1.00
H2324  H     0.80342   0.38652   0.30758   0.00000  Uiso   1.00
C2325  C     0.84798   0.28174   0.33448   0.00000  Uiso   1.00
C2326  C     0.84983   0.31671   0.40517   0.00000  Uiso   1.00
C2327  C     0.84102   0.30333   0.36971   0.00000  Uiso   1.00
C2328  C     0.82622   0.31104   0.36948   0.00000  Uiso   1.00
C2329  C     0.80418   0.28368   0.34631   0.00000  Uiso   1.00
C2330  C     0.81789   0.28221   0.34080   0.00000  Uiso   1.00
N2331  N     0.86109   0.28177   0.34818   0.00000  Uiso   1.00
N2332  N     0.86224   0.30338   0.39186   0.00000  Uiso   1.00
H2333  H     0.84432   0.26889   0.30542   0.00000  Uiso   1.00
H2334  H     0.84770   0.33257   0.43415   0.00000  Uiso   1.00
H2335  H     0.79849   0.26398   0.32671   0.00000  Uiso   1.00
H2336  H     0.82158   0.26152   0.31742   0.00000  Uiso   1.00
C2337  C     0.97298   0.40674   0.33448   0.00000  Uiso   1.00
C2338  C     0.97483   0.44171   0.40517   0.00000  Uiso   1.00
C2339  C     0.96602   0.42833   0.36971   0.00000  Uiso   1.00
C2340  C     0.95122   0.43604   0.36948   0.00000  Uiso   1.00
C2341  C     0.92918   0.40868   0.34631   0.00000  Uiso   1.00
C2342  C     0.94289   0.40721   0.34080   0.00000  Uiso   1.00
N2343  N     0.98609   0.40677   0.34818   0.00000  Uiso   1.00
N2344  N     0.98724   0.42838   0.39186   0.00000  Uiso   1.00
H2345  H     0.96932   0.39389   0.30542   0.00000  Uiso   1.00
H2346  H     0.97270   0.45757   0.43415   0.00000  Uiso   1.00
H2347  H     0.92349   0.38898   0.32671   0.00000  Uiso   1.00
H2348  H     0.94658   0.38652   0.31742   0.00000  Uiso   1.00
C2349  C     0.84798   0.46826   0.45948   0.00000  Uiso   1.00
C2350  C     0.84983   0.43329   0.28017   0.00000  Uiso   1.00
C2351  C     0.84102   0.44667   0.49471   0.00000  Uiso   1.00
C2352  C     0.82622   0.43896   0.49448   0.00000  Uiso   1.00
C2353  C     0.80418   0.46632   0.47131   0.00000  Uiso   1.00
C2354  C     0.81789   0.46779   0.46580   0.00000  Uiso   1.00
N2355  N     0.86109   0.46823   0.47318   0.00000  Uiso   1.00
N2356  N     0.86224   0.44662   0.26686   0.00000  Uiso   1.00
H2357  H     0.84432   0.48111   0.43042   0.00000  Uiso   1.00
H2358  H     0.84770   0.41743   0.30915   0.00000  Uiso   1.00
H2359  H     0.79849   0.48602   0.45171   0.00000  Uiso   1.00
H2360  H     0.82158   0.48848   0.44242   0.00000  Uiso   1.00
C2361  C     0.97298   0.34326   0.45948   0.00000  Uiso   1.00
C2362  C     0.97483   0.30829   0.28017   0.00000  Uiso   1.00
C2363  C     0.96602   0.32167   0.49471   0.00000  Uiso   1.00
C2364  C     0.95122   0.31396   0.49448   0.00000  Uiso   1.00
C2365  C     0.92918   0.34132   0.47131   0.00000  Uiso   1.00
C2366  C     0.94289   0.34279   0.46580   0.00000  Uiso   1.00
N2367  N     0.98609   0.34323   0.47318   0.00000  Uiso   1.00
N2368  N     0.98724   0.32162   0.26686   0.00000  Uiso   1.00
H2369  H     0.96932   0.35611   0.43042   0.00000  Uiso   1.00
H2370  H     0.97270   0.29243   0.30915   0.00000  Uiso   1.00
H2371  H     0.92349   0.36102   0.45171   0.00000  Uiso   1.00
H2372  H     0.94658   0.36348   0.44242   0.00000  Uiso   1.00
C2373  C     0.90202   0.46826   0.41552   0.00000  Uiso   1.00
C2374  C     0.90017   0.43329   0.34483   0.00000  Uiso   1.00
C2375  C     0.90898   0.44667   0.38029   0.00000  Uiso   1.00
C2376  C     0.92378   0.43896   0.38052   0.00000  Uiso   1.00
C2377  C     0.94582   0.46632   0.40369   0.00000  Uiso   1.00
C2378  C     0.93211   0.46779   0.40920   0.00000  Uiso   1.00
N2379  N     0.88891   0.46823   0.40182   0.00000  Uiso   1.00
N2380  N     0.88776   0.44662   0.35814   0.00000  Uiso   1.00
H2381  H     0.90568   0.48111   0.44458   0.00000  Uiso   1.00
H2382  H     0.90230   0.41743   0.31585   0.00000  Uiso   1.00
H2383  H     0.95151   0.48602   0.42329   0.00000  Uiso   1.00
H2384  H     0.92842   0.48848   0.43258   0.00000  Uiso   1.00
C2385  C     0.77702   0.34326   0.41552   0.00000  Uiso   1.00
C2386  C     0.77517   0.30829   0.34483   0.00000  Uiso   1.00
C2387  C     0.78398   0.32167   0.38029   0.00000  Uiso   1.00
C2388  C     0.79878   0.31396   0.38052   0.00000  Uiso   1.00
C2389  C     0.82082   0.34132   0.40369   0.00000  Uiso   1.00
C2390  C     0.80711   0.34279   0.40920   0.00000  Uiso   1.00
N2391  N     0.76391   0.34323   0.40182   0.00000  Uiso   1.00
N2392  N     0.76276   0.32162   0.35814   0.00000  Uiso   1.00
H2393  H     0.78068   0.35611   0.44458   0.00000  Uiso   1.00
H2394  H     0.77730   0.29243   0.31585   0.00000  Uiso   1.00
H2395  H     0.82651   0.36102   0.42329   0.00000  Uiso   1.00
H2396  H     0.80342   0.36348   0.43258   0.00000  Uiso   1.00
Fe2397 Fe    0.87500   0.48961   0.31250   0.00000  Uiso   1.00
Fe2398 Fe    0.75000   0.36461   0.31250   0.00000  Uiso   1.00
Fe2399 Fe    0.87500   0.26039   0.43750   0.00000  Uiso   1.00
Fe2400 Fe    0.75000   0.38539   0.43750   0.00000  Uiso   1.00
C2401  C     0.15202   0.53174   0.29052   0.00000  Uiso   1.00
C2402  C     0.15017   0.56671   0.46983   0.00000  Uiso   1.00
C2403  C     0.15898   0.55333   0.25529   0.00000  Uiso   1.00
C2404  C     0.17378   0.56104   0.25552   0.00000  Uiso   1.00
C2405  C     0.19582   0.53368   0.27869   0.00000  Uiso   1.00
C2406  C     0.18211   0.53221   0.28420   0.00000  Uiso   1.00
N2407  N     0.13891   0.53177   0.27682   0.00000  Uiso   1.00
N2408  N     0.13776   0.55338   0.48314   0.00000  Uiso   1.00
H2409  H     0.15568   0.51889   0.31958   0.00000  Uiso   1.00
H2410  H     0.15230   0.58257   0.44085   0.00000  Uiso   1.00
H2411  H     0.20151   0.51398   0.29829   0.00000  Uiso   1.00
H2412  H     0.17842   0.51152   0.30758   0.00000  Uiso   1.00
C2413  C     0.02702   0.65674   0.29052   0.00000  Uiso   1.00
C2414  C     0.02517   0.69171   0.46983   0.00000  Uiso   1.00
C2415  C     0.03398   0.67833   0.25529   0.00000  Uiso   1.00
C2416  C     0.04878   0.68604   0.25552   0.00000  Uiso   1.00
C2417  C     0.07082   0.65868   0.27869   0.00000  Uiso   1.00
C2418  C     0.05711   0.65721   0.28420   0.00000  Uiso   1.00
N2419  N     0.01391   0.65677   0.27682   0.00000  Uiso   1.00
N2420  N     0.01276   0.67838   0.48314   0.00000  Uiso   1.00
H2421  H     0.03068   0.64389   0.31958   0.00000  Uiso   1.00
H2422  H     0.02730   0.70757   0.44085   0.00000  Uiso   1.00
H2423  H     0.07651   0.63898   0.29829   0.00000  Uiso   1.00
H2424  H     0.05342   0.63652   0.30758   0.00000  Uiso   1.00
C2425  C     0.09798   0.53174   0.33448   0.00000  Uiso   1.00
C2426  C     0.09983   0.56671   0.40517   0.00000  Uiso   1.00
C2427  C     0.09102   0.55333   0.36971   0.00000  Uiso   1.00
C2428  C     0.07622   0.56104   0.36948   0.00000  Uiso   1.00
C2429  C     0.05418   0.53368   0.34631   0.00000  Uiso   1.00
C2430  C     0.06789   0.53221   0.34080   0.00000  Uiso   1.00
N2431  N     0.11109   0.53177   0.34818   0.00000  Uiso   1.00
N2432  N     0.11224   0.55338   0.39186   0.00000  Uiso   1.00
H2433  H     0.09432   0.51889   0.30542   0.00000  Uiso   1.00
H2434  H     0.09770   0.58257   0.43415   0.00000  Uiso   1.00
H2435  H     0.04849   0.51398   0.32671   0.00000  Uiso   1.00
H2436  H     0.07158   0.51152   0.31742   0.00000  Uiso   1.00
C2437  C     0.22298   0.65674   0.33448   0.00000  Uiso   1.00
C2438  C     0.22483   0.69171   0.40517   0.00000  Uiso   1.00
C2439  C     0.21602   0.67833   0.36971   0.00000  Uiso   1.00
C2440  C     0.20122   0.68604   0.36948   0.00000  Uiso   1.00
C2441  C     0.17918   0.65868   0.34631   0.00000  Uiso   1.00
C2442  C     0.19289   0.65721   0.34080   0.00000  Uiso   1.00
N2443  N     0.23609   0.65677   0.34818   0.00000  Uiso   1.00
N2444  N     0.23724   0.67838   0.39186   0.00000  Uiso   1.00
H2445  H     0.21932   0.64389   0.30542   0.00000  Uiso   1.00
H2446  H     0.22270   0.70757   0.43415   0.00000  Uiso   1.00
H2447  H     0.17349   0.63898   0.32671   0.00000  Uiso   1.00
H2448  H     0.19658   0.63652   0.31742   0.00000  Uiso   1.00
C2449  C     0.09798   0.71826   0.45948   0.00000  Uiso   1.00
C2450  C     0.09983   0.68329   0.28017   0.00000  Uiso   1.00
C2451  C     0.09102   0.69667   0.49471   0.00000  Uiso   1.00
C2452  C     0.07622   0.68896   0.49448   0.00000  Uiso   1.00
C2453  C     0.05418   0.71632   0.47131   0.00000  Uiso   1.00
C2454  C     0.06789   0.71779   0.46580   0.00000  Uiso   1.00
N2455  N     0.11109   0.71823   0.47318   0.00000  Uiso   1.00
N2456  N     0.11224   0.69662   0.26686   0.00000  Uiso   1.00
H2457  H     0.09432   0.73111   0.43042   0.00000  Uiso   1.00
H2458  H     0.09770   0.66743   0.30915   0.00000  Uiso   1.00
H2459  H     0.04849   0.73602   0.45171   0.00000  Uiso   1.00
H2460  H     0.07158   0.73848   0.44242   0.00000  Uiso   1.00
C2461  C     0.22298   0.59326   0.45948   0.00000  Uiso   1.00
C2462  C     0.22483   0.55829   0.28017   0.00000  Uiso   1.00
C2463  C     0.21602   0.57167   0.49471   0.00000  Uiso   1.00
C2464  C     0.20122   0.56396   0.49448   0.00000  Uiso   1.00
C2465  C     0.17918   0.59132   0.47131   0.00000  Uiso   1.00
C2466  C     0.19289   0.59279   0.46580   0.00000  Uiso   1.00
N2467  N     0.23609   0.59323   0.47318   0.00000  Uiso   1.00
N2468  N     0.23724   0.57162   0.26686   0.00000  Uiso   1.00
H2469  H     0.21932   0.60611   0.43042   0.00000  Uiso   1.00
H2470  H     0.22270   0.54243   0.30915   0.00000  Uiso   1.00
H2471  H     0.17349   0.61102   0.45171   0.00000  Uiso   1.00
H2472  H     0.19658   0.61348   0.44242   0.00000  Uiso   1.00
C2473  C     0.15202   0.71826   0.41552   0.00000  Uiso   1.00
C2474  C     0.15017   0.68329   0.34483   0.00000  Uiso   1.00
C2475  C     0.15898   0.69667   0.38029   0.00000  Uiso   1.00
C2476  C     0.17378   0.68896   0.38052   0.00000  Uiso   1.00
C2477  C     0.19582   0.71632   0.40369   0.00000  Uiso   1.00
C2478  C     0.18211   0.71779   0.40920   0.00000  Uiso   1.00
N2479  N     0.13891   0.71823   0.40182   0.00000  Uiso   1.00
N2480  N     0.13776   0.69662   0.35814   0.00000  Uiso   1.00
H2481  H     0.15568   0.73111   0.44458   0.00000  Uiso   1.00
H2482  H     0.15230   0.66743   0.31585   0.00000  Uiso   1.00
H2483  H     0.20151   0.73602   0.42329   0.00000  Uiso   1.00
H2484  H     0.17842   0.73848   0.43258   0.00000  Uiso   1.00
C2485  C     0.02702   0.59326   0.41552   0.00000  Uiso   1.00
C2486  C     0.02517   0.55829   0.34483   0.00000  Uiso   1.00
C2487  C     0.03398   0.57167   0.38029   0.00000  Uiso   1.00
C2488  C     0.04878   0.56396   0.38052   0.00000  Uiso   1.00
C2489  C     0.07082   0.59132   0.40369   0.00000  Uiso   1.00
C2490  C     0.05711   0.59279   0.40920   0.00000  Uiso   1.00
N2491  N     0.01391   0.59323   0.40182   0.00000  Uiso   1.00
N2492  N     0.01276   0.57162   0.35814   0.00000  Uiso   1.00
H2493  H     0.03068   0.60611   0.44458   0.00000  Uiso   1.00
H2494  H     0.02730   0.54243   0.31585   0.00000  Uiso   1.00
H2495  H     0.07651   0.61102   0.42329   0.00000  Uiso   1.00
H2496  H     0.05342   0.61348   0.43258   0.00000  Uiso   1.00
Fe2497 Fe    0.12500   0.73961   0.31250   0.00000  Uiso   1.00
Fe2498 Fe    0.00000   0.61461   0.31250   0.00000  Uiso   1.00
Fe2499 Fe    0.12500   0.51039   0.43750   0.00000  Uiso   1.00
Fe2500 Fe   -0.00000   0.63539   0.43750   0.00000  Uiso   1.00
C2501  C     0.40202   0.53174   0.29052   0.00000  Uiso   1.00
C2502  C     0.40017   0.56671   0.46983   0.00000  Uiso   1.00
C2503  C     0.40898   0.55333   0.25529   0.00000  Uiso   1.00
C2504  C     0.42378   0.56104   0.25552   0.00000  Uiso   1.00
C2505  C     0.44582   0.53368   0.27869   0.00000  Uiso   1.00
C2506  C     0.43211   0.53221   0.28420   0.00000  Uiso   1.00
N2507  N     0.38891   0.53177   0.27682   0.00000  Uiso   1.00
N2508  N     0.38776   0.55338   0.48314   0.00000  Uiso   1.00
H2509  H     0.40568   0.51889   0.31958   0.00000  Uiso   1.00
H2510  H     0.40230   0.58257   0.44085   0.00000  Uiso   1.00
H2511  H     0.45151   0.51398   0.29829   0.00000  Uiso   1.00
H2512  H     0.42842   0.51152   0.30758   0.00000  Uiso   1.00
C2513  C     0.27702   0.65674   0.29052   0.00000  Uiso   1.00
C2514  C     0.27517   0.69171   0.46983   0.00000  Uiso   1.00
C2515  C     0.28398   0.67833   0.25529   0.00000  Uiso   1.00
C2516  C     0.29878   0.68604   0.25552   0.00000  Uiso   1.00
C2517  C     0.32082   0.65868   0.27869   0.00000  Uiso   1.00
C2518  C     0.30711   0.65721   0.28420   0.00000  Uiso   1.00
N2519  N     0.26391   0.65677   0.27682   0.00000  Uiso   1.00
N2520  N     0.26276   0.67838   0.48314   0.00000  Uiso   1.00
H2521  H     0.28068   0.64389   0.31958   0.00000  Uiso   1.00
H2522  H     0.27730   0.70757   0.44085   0.00000  Uiso   1.00
H2523  H     0.32651   0.63898   0.29829   0.00000  Uiso   1.00
H2524  H     0.30342   0.63652   0.30758   0.00000  Uiso   1.00
C2525  C     0.34798   0.53174   0.33448   0.00000  Uiso   1.00
C2526  C     0.34983   0.56671   0.40517   0.00000  Uiso   1.00
C2527  C     0.34102   0.55333   0.36971   0.00000  Uiso   1.00
C2528  C     0.32622   0.56104   0.36948   0.00000  Uiso   1.00
C2529  C     0.30418   0.53368   0.34631   0.00000  Uiso   1.00
C2530  C     0.31789   0.53221   0.34080   0.00000  Uiso   1.00
N2531  N     0.36109   0.53177   0.34818   0.00000  Uiso   1.00
N2532  N     0.36224   0.55338   0.39186   0.00000  Uiso   1.00
H2533  H     0.34432   0.51889   0.30542   0.00000  Uiso   1.00
H2534  H     0.34770   0.58257   0.43415   0.00000  Uiso   1.00
H2535  H     0.29849   0.51398   0.32671   0.00000  Uiso   1.00
H2536  H     0.32158   0.51152   0.31742   0.00000  Uiso   1.00
C2537  C     0.47298   0.65674   0.33448   0.00000  Uiso   1.00
C2538  C     0.47483   0.69171   0.40517   0.00000  Uiso   1.00
C2539  C     0.46602   0.67833   0.36971   0.00000  Uiso   1.00
C2540  C     0.45122   0.68604   0.36948   0.00000  Uiso   1.00
C2541  C     0.42918   0.65868   0.34631   0.00000  Uiso   1.00
C2542  C     0.44289   0.65721   0.34080   0.00000  Uiso   1.00
N2543  N     0.48609   0.65677   0.34818   0.00000  Uiso   1.00
N2544  N     0.48724   0.67838   0.39186   0.00000  Uiso   1.00
H2545  H     0.46932   0.64389   0.30542   0.00000  Uiso   1.00
H2546  H     0.47270   0.70757   0.43415   0.00000  Uiso   1.00
H2547  H     0.42349   0.63898   0.32671   0.00000  Uiso   1.00
H2548  H     0.44658   0.63652   0.31742   0.00000  Uiso   1.00
C2549  C     0.34798   0.71826   0.45948   0.00000  Uiso   1.00
C2550  C     0.34983   0.68329   0.28017   0.00000  Uiso   1.00
C2551  C     0.34102   0.69667   0.49471   0.00000  Uiso   1.00
C2552  C     0.32622   0.68896   0.49448   0.00000  Uiso   1.00
C2553  C     0.30418   0.71632   0.47131   0.00000  Uiso   1.00
C2554  C     0.31789   0.71779   0.46580   0.00000  Uiso   1.00
N2555  N     0.36109   0.71823   0.47318   0.00000  Uiso   1.00
N2556  N     0.36224   0.69662   0.26686   0.00000  Uiso   1.00
H2557  H     0.34432   0.73111   0.43042   0.00000  Uiso   1.00
H2558  H     0.34770   0.66743   0.30915   0.00000  Uiso   1.00
H2559  H     0.29849   0.73602   0.45171   0.00000  Uiso   1.00
H2560  H     0.32158   0.73848   0.44242   0.00000  Uiso   1.00
C2561  C     0.47298   0.59326   0.45948   0.00000  Uiso   1.00
C2562  C     0.47483   0.55829   0.28017   0.00000  Uiso   1.00
C2563  C     0.46602   0.57167   0.49471   0.00000  Uiso   1.00
C2564  C     0.45122   0.56396   0.49448   0.00000  Uiso   1.00
C2565  C     0.42918   0.59132   0.47131   0.00000  Uiso   1.00
C2566  C     0.44289   0.59279   0.46580   0.00000  Uiso   1.00
N2567  N     0.48609   0.59323   0.47318   0.00000  Uiso   1.00
N2568  N     0.48724   0.57162   0.26686   0.00000  Uiso   1.00
H2569  H     0.46932   0.60611   0.43042   0.00000  Uiso   1.00
H2570  H     0.47270   0.54243   0.30915   0.00000  Uiso   1.00
H2571  H     0.42349   0.61102   0.45171   0.00000  Uiso   1.00
H2572  H     0.44658   0.61348   0.44242   0.00000  Uiso   1.00
C2573  C     0.40202   0.71826   0.41552   0.00000  Uiso   1.00
C2574  C     0.40017   0.68329   0.34483   0.00000  Uiso   1.00
C2575  C     0.40898   0.69667   0.38029   0.00000  Uiso   1.00
C2576  C     0.42378   0.68896   0.38052   0.00000  Uiso   1.00
C2577  C     0.44582   0.71632   0.40369   0.00000  Uiso   1.00
C2578  C     0.43211   0.71779   0.40920   0.00000  Uiso   1.00
N2579  N     0.38891   0.71823   0.40182   0.00000  Uiso   1.00
N2580  N     0.38776   0.69662   0.35814   0.00000  Uiso   1.00
H2581  H     0.40568   0.73111   0.44458   0.00000  Uiso   1.00
H2582  H     0.40230   0.66743   0.31585   0.00000  Uiso   1.00
H2583  H     0.45151   0.73602   0.42329   0.00000  Uiso   1.00
H2584  H     0.42842   0.73848   0.43258   0.00000  Uiso   1.00
C2585  C     0.27702   0.59326   0.41552   0.00000  Uiso   1.00
C2586  C     0.27517   0.55829   0.34483   0.00000  Uiso   1.00
C2587  C     0.28398   0.57167   0.38029   0.00000  Uiso   1.00
C2588  C     0.29878   0.56396   0.38052   0.00000  Uiso   1.00
C2589  C     0.32082   0.59132   0.40369   0.00000  Uiso   1.00
C2590  C     0.30711   0.59279   0.40920   0.00000  Uiso   1.00
N2591  N     0.26391   0.59323   0.40182   0.00000  Uiso   1.00
N2592  N     0.26276   0.57162   0.35814   0.00000  Uiso   1.00
H2593  H     0.28068   0.60611   0.44458   0.00000  Uiso   1.00
H2594  H     0.27730   0.54243   0.31585   0.00000  Uiso   1.00
H2595  H     0.32651   0.61102   0.42329   0.00000  Uiso   1.00
H2596  H     0.30342   0.61348   0.43258   0.00000  Uiso   1.00
Fe2597 Fe    0.37500   0.73961   0.31250   0.00000  Uiso   1.00
Fe2598 Fe    0.25000   0.61461   0.31250   0.00000  Uiso   1.00
Fe2599 Fe    0.37500   0.51039   0.43750   0.00000  Uiso   1.00
Fe2600 Fe    0.25000   0.63539   0.43750   0.00000  Uiso   1.00
C2601  C     0.65202   0.53174   0.29052   0.00000  Uiso   1.00
C2602  C     0.65017   0.56671   0.46983   0.00000  Uiso   1.00
C2603  C     0.65898   0.55333   0.25529   0.00000  Uiso   1.00
C2604  C     0.67378   0.56104   0.25552   0.00000  Uiso   1.00
C2605  C     0.69582   0.53368   0.27869   0.00000  Uiso   1.00
C2606  C     0.68211   0.53221   0.28420   0.00000  Uiso   1.00
N2607  N     0.63891   0.53177   0.27682   0.00000  Uiso   1.00
N2608  N     0.63776   0.55338   0.48314   0.00000  Uiso   1.00
H2609  H     0.65568   0.51889   0.31958   0.00000  Uiso   1.00
H2610  H     0.65230   0.58257   0.44085   0.00000  Uiso   1.00
H2611  H     0.70151   0.51398   0.29829   0.00000  Uiso   1.00
H2612  H     0.67842   0.51152   0.30758   0.00000  Uiso   1.00
C2613  C     0.52702   0.65674   0.29052   0.00000  Uiso   1.00
C2614  C     0.52517   0.69171   0.46983   0.00000  Uiso   1.00
C2615  C     0.53398   0.67833   0.25529   0.00000  Uiso   1.00
C2616  C     0.54878   0.68604   0.25552   0.00000  Uiso   1.00
C2617  C     0.57082   0.65868   0.27869   0.00000  Uiso   1.00
C2618  C     0.55711   0.65721   0.28420   0.00000  Uiso   1.00
N2619  N     0.51391   0.65677   0.27682   0.00000  Uiso   1.00
N2620  N     0.51276   0.67838   0.48314   0.00000  Uiso   1.00
H2621  H     0.53068   0.64389   0.31958   0.00000  Uiso   1.00
H2622  H     0.52730   0.70757   0.44085   0.00000  Uiso   1.00
H2623  H     0.57651   0.63898   0.29829   0.00000  Uiso   1.00
H2624  H     0.55342   0.63652   0.30758   0.00000  Uiso   1.00
C2625  C     0.59798   0.53174   0.33448   0.00000  Uiso   1.00
C2626  C     0.59983   0.56671   0.40517   0.00000  Uiso   1.00
C2627  C     0.59102   0.55333   0.36971   0.00000  Uiso   1.00
C2628  C     0.57622   0.56104   0.36948   0.00000  Uiso   1.00
C2629  C     0.55418   0.53368   0.34631   0.00000  Uiso   1.00
C2630  C     0.56789   0.53221   0.34080   0.00000  Uiso   1.00
N2631  N     0.61109   0.53177   0.34818   0.00000  Uiso   1.00
N2632  N     0.61224   0.55338   0.39186   0.00000  Uiso   1.00
H2633  H     0.59432   0.51889   0.30542   0.00000  Uiso   1.00
H2634  H     0.59770   0.58257   0.43415   0.00000  Uiso   1.00
H2635  H     0.54849   0.51398   0.32671   0.00000  Uiso   1.00
H2636  H     0.57158   0.51152   0.31742   0.00000  Uiso   1.00
C2637  C     0.72298   0.65674   0.33448   0.00000  Uiso   1.00
C2638  C     0.72483   0.69171   0.40517   0.00000  Uiso   1.00
C2639  C     0.71602   0.67833   0.36971   0.00000  Uiso   1.00
C2640  C     0.70122   0.68604   0.36948   0.00000  Uiso   1.00
C2641  C     0.67918   0.65868   0.34631   0.00000  Uiso   1.00
C2642  C     0.69289   0.65721   0.34080   0.00000  Uiso   1.00
N2643  N     0.73609   0.65677   0.34818   0.00000  Uiso   1.00
N2644  N     0.73724   0.67838   0.39186   0.00000  Uiso   1.00
H2645  H     0.71932   0.64389   0.30542   0.00000  Uiso   1.00
H2646  H     0.72270   0.70757   0.43415   0.00000  Uiso   1.00
H2647  H     0.67349   0.63898   0.32671   0.00000  Uiso   1.00
H2648  H     0.69658   0.63652   0.31742   0.00000  Uiso   1.00
C2649  C     0.59798   0.71826   0.45948   0.00000  Uiso   1.00
C2650  C     0.59983   0.68329   0.28017   0.00000  Uiso   1.00
C2651  C     0.59102   0.69667   0.49471   0.00000  Uiso   1.00
C2652  C     0.57622   0.68896   0.49448   0.00000  Uiso   1.00
C2653  C     0.55418   0.71632   0.47131   0.00000  Uiso   1.00
C2654  C     0.56789   0.71779   0.46580   0.00000  Uiso   1.00
N2655  N     0.61109   0.71823   0.47318   0.00000  Uiso   1.00
N2656  N     0.61224   0.69662   0.26686   0.00000  Uiso   1.00
H2657  H     0.59432   0.73111   0.43042   0.00000  Uiso   1.00
H2658  H     0.59770   0.66743   0.30915   0.00000  Uiso   1.00
H2659  H     0.54849   0.73602   0.45171   0.00000  Uiso   1.00
H2660  H     0.57158   0.73848   0.44242   0.00000  Uiso   1.00
C2661  C     0.72298   0.59326   0.45948   0.00000  Uiso   1.00
C2662  C     0.72483   0.55829   0.28017   0.00000  Uiso   1.00
C2663  C     0.71602   0.57167   0.49471   0.00000  Uiso   1.00
C2664  C     0.70122   0.56396   0.49448   0.00000  Uiso   1.00
C2665  C     0.67918   0.59132   0.47131   0.00000  Uiso   1.00
C2666  C     0.69289   0.59279   0.46580   0.00000  Uiso   1.00
N2667  N     0.73609   0.59323   0.47318   0.00000  Uiso   1.00
N2668  N     0.73724   0.57162   0.26686   0.00000  Uiso   1.00
H2669  H     0.71932   0.60611   0.43042   0.00000  Uiso   1.00
H2670  H     0.72270   0.54243   0.30915   0.00000  Uiso   1.00
H2671  H     0.67349   0.61102   0.45171   0.00000  Uiso   1.00
H2672  H     0.69658   0.61348   0.44242   0.00000  Uiso   1.00
C2673  C     0.65202   0.71826   0.41552   0.00000  Uiso   1.00
C2674  C     0.65017   0.68329   0.34483   0.00000  Uiso   1.00
C2675  C     0.65898   0.69667   0.38029   0.00000  Uiso   1.00
C2676  C     0.67378   0.68896   0.38052   0.00000  Uiso   1.00
C2677  C     0.69582   0.71632   0.40369   0.00000  Uiso   1.00
C2678  C     0.68211   0.71779   0.40920   0.00000  Uiso   1.00
N2679  N     0.63891   0.71823   0.40182   0.00000  Uiso   1.00
N2680  N     0.63776   0.69662   0.35814   0.00000  Uiso   1.00
H2681  H     0.65568   0.73111   0.44458   0.00000  Uiso   1.00
H2682  H     0.65230   0.66743   0.31585   0.00000  Uiso   1.00
H2683  H     0.70151   0.73602   0.42329   0.00000  Uiso   1.00
H2684  H     0.67842   0.73848   0.43258   0.00000  Uiso   1.00
C2685  C     0.52702   0.59326   0.41552   0.00000  Uiso   1.00
C2686  C     0.52517   0.55829   0.34483   0.00000  Uiso   1.00
C2687  C     0.53398   0.57167   0.38029   0.00000  Uiso   1.00
C2688  C     0.54878   0.56396   0.38052   0.00000  Uiso   1.00
C2689  C     0.57082   0.59132   0.40369   0.00000  Uiso   1.00
C2690  C     0.55711   0.59279   0.40920   0.00000  Uiso   1.00
N2691  N     0.51391   0.59323   0.40182   0.00000  Uiso   1.00
N2692  N     0.51276   0.57162   0.35814   0.00000  Uiso   1.00
H2693  H     0.53068   0.60611   0.44458   0.00000  Uiso   1.00
H2694  H     0.52730   0.54243   0.31585   0.00000  Uiso   1.00
H2695  H     0.57651   0.61102   0.42329   0.00000  Uiso   1.00
H2696  H     0.55342   0.61348   0.43258   0.00000  Uiso   1.00
Fe2697 Fe    0.62500   0.73961   0.31250   0.00000  Uiso   1.00
Fe2698 Fe    0.50000   0.61461   0.31250   0.00000  Uiso   1.00
Fe2699 Fe    0.62500   0.51039   0.43750   0.00000  Uiso   1.00
Fe2700 Fe    0.50000   0.63539   0.43750   0.00000  Uiso   1.00
C2701  C     0.90202   0.53174   0.29052   0.00000  Uiso   1.00
C2702  C     0.90017   0.56671   0.46983   0.00000  Uiso   1.00
C2703  C     0.90898   0.55333   0.25529   0.00000  Uiso   1.00
C2704  C     0.92378   0.56104   0.25552   0.00000  Uiso   1.00
C2705  C     0.94582   0.53368   0.27869   0.00000  Uiso   1.00
C2706  C     0.93211   0.53221   0.28420   0.00000  Uiso   1.00
N2707  N     0.88891   0.53177   0.27682   0.00000  Uiso   1.00
N2708  N     0.88776   0.55338   0.48314   0.00000  Uiso   1.00
H2709  H     0.90568   0.51889   0.31958   0.00000  Uiso   1.00
H2710  H     0.90230   0.58257   0.44085   0.00000  Uiso   1.00
H2711  H     0.95151   0.51398   0.29829   0.00000  Uiso   1.00
H2712  H     0.92842   0.51152   0.30758   0.00000  Uiso   1.00
C2713  C     0.77702   0.65674   0.29052   0.00000  Uiso   1.00
C2714  C     0.77517   0.69171   0.46983   0.00000  Uiso   1.00
C2715  C     0.78398   0.67833   0.25529   0.00000  Uiso   1.00
C2716  C     0.79878   0.68604   0.25552   0.00000  Uiso   1.00
C2717  C     0.82082   0.65868   0.27869   0.00000  Uiso   1.00
C2718  C     0.80711   0.65721   0.28420   0.00000  Uiso   1.00
N2719  N     0.76391   0.65677   0.27682   0.00000  Uiso   1.00
N2720  N     0.76276   0.67838   0.48314   0.00000  Uiso   1.00
H2721  H     0.78068   0.64389   0.31958   0.00000  Uiso   1.00
H2722  H     0.77730   0.70757   0.44085   0.00000  Uiso   1.00
H2723  H     0.82651   0.63898   0.29829   0.00000  Uiso   1.00
H2724  H     0.80342   0.63652   0.30758   0.00000  Uiso   1.00
C2725  C     0.84798   0.53174   0.33448   0.00000  Uiso   1.00
C2726  C     0.84983   0.56671   0.40517   0.00000  Uiso   1.00
C2727  C     0.84102   0.55333   0.36971   0.00000  Uiso   1.00
C2728  C     0.82622   0.56104   0.36948   0.00000  Uiso   1.00
C2729  C     0.80418   0.53368   0.34631   0.00000  Uiso   1.00
C2730  C     0.81789   0.53221   0.34080   0.00000  Uiso   1.00
N2731  N     0.86109   0.53177   0.34818   0.00000  Uiso   1.00
N2732  N     0.86224   0.55338   0.39186   0.00000  Uiso   1.00
H2733  H     0.84432   0.51889   0.30542   0.00000  Uiso   1.00
H2734  H     0.84770   0.58257   0.43415   0.00000  Uiso   1.00
H2735  H     0.79849   0.51398   0.32671   0.00000  Uiso   1.00
H2736  H     0.82158   0.51152   0.31742   0.00000  Uiso   1.00
C2737  C     0.97298   0.65674   0.33448   0.00000  Uiso   1.00
C2738  C     0.97483   0.69171   0.40517   0.00000  Uiso   1.00
C2739  C     0.96602   0.67833   0.36971   0.00000  Uiso   1.00
C2740  C     0.95122   0.68604   0.36948   0.00000  Uiso   1.00
C2741  C     0.92918   0.65868   0.34631   0.00000  Uiso   1.00
C2742  C     0.94289   0.65721   0.34080   0.00000  Uiso   1.00
N2743  N     0.98609   0.65677   0.34818   0.00000  Uiso   1.00
N2744  N     0.98724   0.67838   0.39186   0.00000  Uiso   1.00
H2745  H     0.96932   0.64389   0.30542   0.00000  Uiso   1.00
H2746  H     0.97270   0.70757   0.43415   0.00000  Uiso   1.00
H2747  H     0.92349   0.63898   0.32671   0.00000  Uiso   1.00
H2748  H     0.94658   0.63652   0.31742   0.00000  Uiso   1.00
C2749  C     0.84798   0.71826   0.45948   0.00000  Uiso   1.00
C2750  C     0.84983   0.68329   0.28017   0.00000  Uiso   1.00
C2751  C     0.84102   0.69667   0.49471   0.00000  Uiso   1.00
C2752  C     0.82622   0.68896   0.49448   0.00000  Uiso   1.00
C2753  C     0.80418   0.71632   0.47131   0.00000  Uiso   1.00
C2754  C     0.81789   0.71779   0.46580   0.00000  Uiso   1.00
N2755  N     0.86109   0.71823   0.47318   0.00000  Uiso   1.00
N2756  N     0.86224   0.69662   0.26686   0.00000  Uiso   1.00
H2757  H     0.84432   0.73111   0.43042   0.00000  Uiso   1.00
H2758  H     0.84770   0.66743   0.30915   0.00000  Uiso   1.00
H2759  H     0.79849   0.73602   0.45171   0.00000  Uiso   1.00
H2760  H     0.82158   0.73848   0.44242   0.00000  Uiso   1.00
C2761  C     0.97298   0.59326   0.45948   0.00000  Uiso   1.00
C2762  C     0.97483   0.55829   0.28017   0.00000  Uiso   1.00
C2763  C     0.96602   0.57167   0.49471   0.00000  Uiso   1.00
C2764  C     0.95122   0.56396   0.49448   0.00000  Uiso   1.00
C2765  C     0.92918   0.59132   0.47131   0.00000  Uiso   1.00
C2766  C     0.94289   0.59279   0.46580   0.00000  Uiso   1.00
N2767  N     0.98609   0.59323   0.47318   0.00000  Uiso   1.00
N2768  N     0.98724   0.57162   0.26686   0.00000  Uiso   1.00
H2769  H     0.96932   0.60611   0.43042   0.00000  Uiso   1.00
H2770  H     0.97270   0.54243   0.30915   0.00000  Uiso   1.00
H2771  H     0.92349   0.61102   0.45171   0.00000  Uiso   1.00
H2772  H     0.94658   0.61348   0.44242   0.00000  Uiso   1.00
C2773  C     0.90202   0.71826   0.41552   0.00000  Uiso   1.00
C2774  C     0.90017   0.68329   0.34483   0.00000  Uiso   1.00
C2775  C     0.90898   0.69667   0.38029   0.00000  Uiso   1.00
C2776  C     0.92378   0.68896   0.38052   0.00000  Uiso   1.00
C2777  C     0.94582   0.71632   0.40369   0.00000  Uiso   1.00
C2778  C     0.93211   0.71779   0.40920   0.00000  Uiso   1.00
N2779  N     0.88891   0.71823   0.40182   0.00000  Uiso   1.00
N2780  N     0.88776   0.69662   0.35814   0.00000  Uiso   1.00
H2781  H     0.90568   0.73111   0.44458   0.00000  Uiso   1.00
H2782  H     0.90230   0.66743   0.31585   0.00000  Uiso   1.00
H2783  H     0.95151   0.73602   0.42329   0.00000  Uiso   1.00
H2784  H     0.92842   0.73848   0.43258   0.00000  Uiso   1.00
C2785  C     0.77702   0.59326   0.41552   0.00000  Uiso   1.00
C2786  C     0.77517   0.55829   0.34483   0.00000  Uiso   1.00
C2787  C     0.78398   0.57167   0.38029   0.00000  Uiso   1.00
C2788  C     0.79878   0.56396   0.38052   0.00000  Uiso   1.00
C2789  C     0.82082   0.59132   0.40369   0.00000  Uiso   1.00
C2790  C     0.80711   0.59279   0.40920   0.00000  Uiso   1.00
N2791  N     0.76391   0.59323   0.40182   0.00000  Uiso   1.00
N2792  N     0.76276   0.57162   0.35814   0.00000  Uiso   1.00
H2793  H     0.78068   0.60611   0.44458   0.00000  Uiso   1.00
H2794  H     0.77730   0.54243   0.31585   0.00000  Uiso   1.00
H2795  H     0.82651   0.61102   0.42329   0.00000  Uiso   1.00
H2796  H     0.80342   0.61348   0.43258   0.00000  Uiso   1.00
Fe2797 Fe    0.87500   0.73961   0.31250   0.00000  Uiso   1.00
Fe2798 Fe    0.75000   0.61461   0.31250   0.00000  Uiso   1.00
Fe2799 Fe    0.87500   0.51039   0.43750   0.00000  Uiso   1.00
Fe2800 Fe    0.75000   0.63539   0.43750   0.00000  Uiso   1.00
C2801  C     0.15202   0.78174   0.29052   0.00000  Uiso   1.00
C2802  C     0.15017   0.81671   0.46983   0.00000  Uiso   1.00
C2803  C     0.15898   0.80333   0.25529   0.00000  Uiso   1.00
C2804  C     0.17378   0.81104   0.25552   0.00000  Uiso   1.00
C2805  C     0.19582   0.78368   0.27869   0.00000  Uiso   1.00
C2806  C     0.18211   0.78221   0.28420   0.00000  Uiso   1.00
N2807  N     0.13891   0.78177   0.27682   0.00000  Uiso   1.00
N2808  N     0.13776   0.80338   0.48314   0.00000  Uiso   1.00
H2809  H     0.15568   0.76889   0.31958   0.00000  Uiso   1.00
H2810  H     0.15230   0.83257   0.44085   0.00000  Uiso   1.00
H2811  H     0.20151   0.76398   0.29829   0.00000  Uiso   1.00
H2812  H     0.17842   0.76152   0.30758   0.00000  Uiso   1.00
C2813  C     0.02702   0.90674   0.29052   0.00000  Uiso   1.00
C2814  C     0.02517   0.94171   0.46983   0.00000  Uiso   1.00
C2815  C     0.03398   0.92833   0.25529   0.00000  Uiso   1.00
C2816  C     0.04878   0.93604   0.25552   0.00000  Uiso   1.00
C2817  C     0.07082   0.90868   0.27869   0.00000  Uiso   1.00
C2818  C     0.05711   0.90721   0.28420   0.00000  Uiso   1.00
N2819  N     0.01391   0.90677   0.27682   0.00000  Uiso   1.00
N2820  N     0.01276   0.92838   0.48314   0.00000  Uiso   1.00
H2821  H     0.03068   0.89389   0.31958   0.00000  Uiso   1.00
H2822  H     0.02730   0.95757   0.44085   0.00000  Uiso   1.00
H2823  H     0.07651   0.88898   0.29829   0.00000  Uiso   1.00
H2824  H     0.05342   0.88652   0.30758   0.00000  Uiso   1.00
C2825  C     0.09798   0.78174   0.33448   0.00000  Uiso   1.00
C2826  C     0.09983   0.81671   0.40517   0.00000  Uiso   1.00
C2827  C     0.09102   0.80333   0.36971   0.00000  Uiso   1.00
C2828  C     0.07622   0.81104   0.36948   0.00000  Uiso   1.00
C2829  C     0.05418   0.78368   0.34631   0.00000  Uiso   1.00
C2830  C     0.06789   0.78221   0.34080   0.00000  Uiso   1.00
N2831  N     0.11109   0.78177   0.34818   0.00000  Uiso   1.00
N2832  N     0.11224   0.80338   0.39186   0.00000  Uiso   1.00
H2833  H     0.09432   0.76889   0.30542   0.00000  Uiso   1.00
H2834  H     0.09770   0.83257   0.43415   0.00000  Uiso   1.00
H2835  H     0.04849   0.76398   0.32671   0.00000  Uiso   1.00
H2836  H     0.07158   0.76152   0.31742   0.00000  Uiso   1.00
C2837  C     0.22298   0.90674   0.33448   0.00000  Uiso   1.00
C2838  C     0.22483   0.94171   0.40517   0.00000  Uiso   1.00
C2839  C     0.21602   0.92833   0.36971   0.00000  Uiso   1.00
C2840  C     0.20122   0.93604   0.36948   0.00000  Uiso   1.00
C2841  C     0.17918   0.90868   0.34631   0.00000  Uiso   1.00
C2842  C     0.19289   0.90721   0.34080   0.00000  Uiso   1.00
N2843  N     0.23609   0.90677   0.34818   0.00000  Uiso   1.00
N2844  N     0.23724   0.92838   0.39186   0.00000  Uiso   1.00
H2845  H     0.21932   0.89389   0.30542   0.00000  Uiso   1.00
H2846  H     0.22270   0.95757   0.43415   0.00000  Uiso   1.00
H2847  H     0.17349   0.88898   0.32671   0.00000  Uiso   1.00
H2848  H     0.19658   0.88652   0.31742   0.00000  Uiso   1.00
C2849  C     0.09798   0.96826   0.45948   0.00000  Uiso   1.00
C2850  C     0.09983   0.93329   0.28017   0.00000  Uiso   1.00
C2851  C     0.09102   0.94667   0.49471   0.00000  Uiso   1.00
C2852  C     0.07622   0.93896   0.49448   0.00000  Uiso   1.00
C2853  C     0.05418   0.96632   0.47131   0.00000  Uiso   1.00
C2854  C     0.06789   0.96779   0.46580   0.00000  Uiso   1.00
N2855  N     0.11109   0.96823   0.47318   0.00000  Uiso   1.00
N2856  N     0.11224   0.94662   0.26686   0.00000  Uiso   1.00
H2857  H     0.09432   0.98111   0.43042   0.00000  Uiso   1.00
H2858  H     0.09770   0.91743   0.30915   0.00000  Uiso   1.00
H2859  H     0.04849   0.98602   0.45171   0.00000  Uiso   1.00
H2860  H     0.07158   0.98848   0.44242   0.00000  Uiso   1.00
C2861  C     0.22298   0.84326   0.45948   0.00000  Uiso   1.00
C2862  C     0.22483   0.80829   0.28017   0.00000  Uiso   1.00
C2863  C     0.21602   0.82167   0.49471   0.00000  Uiso   1.00
C2864  C     0.20122   0.81396   0.49448   0.00000  Uiso   1.00
C2865  C     0.17918   0.84132   0.47131   0.00000  Uiso   1.00
C2866  C     0.19289   0.84279   0.46580   0.00000  Uiso   1.00
N2867  N     0.23609   0.84323   0.47318   0.00000  Uiso   1.00
N2868  N     0.23724   0.82162   0.26686   0.00000  Uiso   1.00
H2869  H     0.21932   0.85611   0.43042   0.00000  Uiso   1.00
H2870  H     0.22270   0.79243   0.30915   0.00000  Uiso   1.00
H2871  H     0.17349   0.86102   0.45171   0.00000  Uiso   1.00
H2872  H     0.19658   0.86348   0.44242   0.00000  Uiso   1.00
C2873  C     0.15202   0.96826   0.41552   0.00000  Uiso   1.00
C2874  C     0.15017   0.93329   0.34483   0.00000  Uiso   1.00
C2875  C     0.15898   0.94667   0.38029   0.00000  Uiso   1.00
C2876  C     0.17378   0.93896   0.38052   0.00000  Uiso   1.00
C2877  C     0.19582   0.96632   0.40369   0.00000  Uiso   1.00
C2878  C     0.18211   0.96779   0.40920   0.00000  Uiso   1.00
N2879  N     0.13891   0.96823   0.40182   0.00000  Uiso   1.00
N2880  N     0.13776   0.94662   0.35814   0.00000  Uiso   1.00
H2881  H     0.15568   0.98111   0.44458   0.00000  Uiso   1.00
H2882  H     0.15230   0.91743   0.31585   0.00000  Uiso   1.00
H2883  H     0.20151   0.98602   0.42329   0.00000  Uiso   1.00
H2884  H     0.17842   0.98848   0.43258   0.00000  Uiso   1.00
C2885  C     0.02702   0.84326   0.41552   0.00000  Uiso   1.00
C2886  C     0.02517   0.80829   0.34483   0.00000  Uiso   1.00
C2887  C     0.03398   0.82167   0.38029   0.00000  Uiso   1.00
C2888  C     0.04878   0.81396   0.38052   0.00000  Uiso   1.00
C2889  C     0.07082   0.84132   0.40369   0.00000  Uiso   1.00
C2890  C     0.05711   0.84279   0.40920   0.00000  Uiso   1.00
N2891  N     0.01391   0.84323   0.40182   0.00000  Uiso   1.00
N2892  N     0.01276   0.82162   0.35814   0.00000  Uiso   1.00
H2893  H     0.03068   0.85611   0.44458   0.00000  Uiso   1.00
H2894  H     0.02730   0.79243   0.31585   0.00000  Uiso   1.00
H2895  H     0.07651   0.86102   0.42329   0.00000  Uiso   1.00
H2896  H     0.05342   0.86348   0.43258   0.00000  Uiso   1.00
Fe2897 Fe    0.12500   0.98961   0.31250   0.00000  Uiso   1.00
Fe2898 Fe    0.00000   0.86461   0.31250   0.00000  Uiso   1.00
Fe2899 Fe    0.12500   0.76039   0.43750   0.00000  Uiso   1.00
Fe2900 Fe   -0.00000   0.88539   0.43750   0.00000  Uiso   1.00
C2901  C     0.40202   0.78174   0.29052   0.00000  Uiso   1.00
C2902  C     0.40017   0.81671   0.46983   0.00000  Uiso   1.00
C2903  C     0.40898   0.80333   0.25529   0.00000  Uiso   1.00
C2904  C     0.42378   0.81104   0.25552   0.00000  Uiso   1.00
C2905  C     0.44582   0.78368   0.27869   0.00000  Uiso   1.00
C2906  C     0.43211   0.78221   0.28420   0.00000  Uiso   1.00
N2907  N     0.38891   0.78177   0.27682   0.00000  Uiso   1.00
N2908  N     0.38776   0.80338   0.48314   0.00000  Uiso   1.00
H2909  H     0.40568   0.76889   0.31958   0.00000  Uiso   1.00
H2910  H     0.40230   0.83257   0.44085   0.00000  Uiso   1.00
H2911  H     0.45151   0.76398   0.29829   0.00000  Uiso   1.00
H2912  H     0.42842   0.76152   0.30758   0.00000  Uiso   1.00
C2913  C     0.27702   0.90674   0.29052   0.00000  Uiso   1.00
C2914  C     0.27517   0.94171   0.46983   0.00000  Uiso   1.00
C2915  C     0.28398   0.92833   0.25529   0.00000  Uiso   1.00
C2916  C     0.29878   0.93604   0.25552   0.00000  Uiso   1.00
C2917  C     0.32082   0.90868   0.27869   0.00000  Uiso   1.00
C2918  C     0.30711   0.90721   0.28420   0.00000  Uiso   1.00
N2919  N     0.26391   0.90677   0.27682   0.00000  Uiso   1.00
N2920  N     0.26276   0.92838   0.48314   0.00000  Uiso   1.00
H2921  H     0.28068   0.89389   0.31958   0.00000  Uiso   1.00
H2922  H     0.27730   0.95757   0.44085   0.00000  Uiso   1.00
H2923  H     0.32651   0.88898   0.29829   0.00000  Uiso   1.00
H2924  H     0.30342   0.88652   0.30758   0.00000  Uiso   1.00
C2925  C     0.34798   0.78174   0.33448   0.00000  Uiso   1.00
C2926  C     0.34983   0.81671   0.40517   0.00000  Uiso   1.00
C2927  C     0.34102   0.80333   0.36971   0.00000  Uiso   1.00
C2928  C     0.32622   0.81104   0.36948   0.00000  Uiso   1.00
C2929  C     0.30418   0.78368   0.34631   0.00000  Uiso   1.00
C2930  C     0.31789   0.78221   0.34080   0.00000  Uiso   1.00
N2931  N     0.36109   0.78177   0.34818   0.00000  Uiso   1.00
N2932  N     0.36224   0.80338   0.39186   0.00000  Uiso   1.00
H2933  H     0.34432   0.76889   0.30542   0.00000  Uiso   1.00
H2934  H     0.34770   0.83257   0.43415   0.00000  Uiso   1.00
H2935  H     0.29849   0.76398   0.32671   0.00000  Uiso   1.00
H2936  H     0.32158   0.76152   0.31742   0.00000  Uiso   1.00
C2937  C     0.47298   0.90674   0.33448   0.00000  Uiso   1.00
C2938  C     0.47483   0.94171   0.40517   0.00000  Uiso   1.00
C2939  C     0.46602   0.92833   0.36971   0.00000  Uiso   1.00
C2940  C     0.45122   0.93604   0.36948   0.00000  Uiso   1.00
C2941  C     0.42918   0.90868   0.34631   0.00000  Uiso   1.00
C2942  C     0.44289   0.90721   0.34080   0.00000  Uiso   1.00
N2943  N     0.48609   0.90677   0.34818   0.00000  Uiso   1.00
N2944  N     0.48724   0.92838   0.39186   0.00000  Uiso   1.00
H2945  H     0.46932   0.89389   0.30542   0.00000  Uiso   1.00
H2946  H     0.47270   0.95757   0.43415   0.00000  Uiso   1.00
H2947  H     0.42349   0.88898   0.32671   0.00000  Uiso   1.00
H2948  H     0.44658   0.88652   0.31742   0.00000  Uiso   1.00
C2949  C     0.34798   0.96826   0.45948   0.00000  Uiso   1.00
C2950  C     0.34983   0.93329   0.28017   0.00000  Uiso   1.00
C2951  C     0.34102   0.94667   0.49471   0.00000  Uiso   1.00
C2952  C     0.32622   0.93896   0.49448   0.00000  Uiso   1.00
C2953  C     0.30418   0.96632   0.47131   0.00000  Uiso   1.00
C2954  C     0.31789   0.96779   0.46580   0.00000  Uiso   1.00
N2955  N     0.36109   0.96823   0.47318   0.00000  Uiso   1.00
N2956  N     0.36224   0.94662   0.26686   0.00000  Uiso   1.00
H2957  H     0.34432   0.98111   0.43042   0.00000  Uiso   1.00
H2958  H     0.34770   0.91743   0.30915   0.00000  Uiso   1.00
H2959  H     0.29849   0.98602   0.45171   0.00000  Uiso   1.00
H2960  H     0.32158   0.98848   0.44242   0.00000  Uiso   1.00
C2961  C     0.47298   0.84326   0.45948   0.00000  Uiso   1.00
C2962  C     0.47483   0.80829   0.28017   0.00000  Uiso   1.00
C2963  C     0.46602   0.82167   0.49471   0.00000  Uiso   1.00
C2964  C     0.45122   0.81396   0.49448   0.00000  Uiso   1.00
C2965  C     0.42918   0.84132   0.47131   0.00000  Uiso   1.00
C2966  C     0.44289   0.84279   0.46580   0.00000  Uiso   1.00
N2967  N     0.48609   0.84323   0.47318   0.00000  Uiso   1.00
N2968  N     0.48724   0.82162   0.26686   0.00000  Uiso   1.00
H2969  H     0.46932   0.85611   0.43042   0.00000  Uiso   1.00
H2970  H     0.47270   0.79243   0.30915   0.00000  Uiso   1.00
H2971  H     0.42349   0.86102   0.45171   0.00000  Uiso   1.00
H2972  H     0.44658   0.86348   0.44242   0.00000  Uiso   1.00
C2973  C     0.40202   0.96826   0.41552   0.00000  Uiso   1.00
C2974  C     0.40017   0.93329   0.34483   0.00000  Uiso   1.00
C2975  C     0.40898   0.94667   0.38029   0.00000  Uiso   1.00
C2976  C     0.42378   0.93896   0.38052   0.00000  Uiso   1.00
C2977  C     0.44582   0.96632   0.40369   0.00000  Uiso   1.00
C2978  C     0.43211   0.96779   0.40920   0.00000  Uiso   1.00
N2979  N     0.38891   0.96823   0.40182   0.00000  Uiso   1.00
N2980  N     0.38776   0.94662   0.35814   0.00000  Uiso   1.00
H2981  H     0.40568   0.98111   0.44458   0.00000  Uiso   1.00
H2982  H     0.40230   0.91743   0.31585   0.00000  Uiso   1.00
H2983  H     0.45151   0.98602   0.42329   0.00000  Uiso   1.00
H2984  H     0.42842   0.98848   0.43258   0.00000  Uiso   1.00
C2985  C     0.27702   0.84326   0.41552   0.00000  Uiso   1.00
C2986  C     0.27517   0.80829   0.34483   0.00000  Uiso   1.00
C2987  C     0.28398   0.82167   0.38029   0.00000  Uiso   1.00
C2988  C     0.29878   0.81396   0.38052   0.00000  Uiso   1.00
C2989  C     0.32082   0.84132   0.40369   0.00000  Uiso   1.00
C2990  C     0.30711   0.84279   0.40920   0.00000  Uiso   1.00
N2991  N     0.26391   0.84323   0.40182   0.00000  Uiso   1.00
N2992  N     0.26276   0.82162   0.35814   0.00000  Uiso   1.00
H2993  H     0.28068   0.85611   0.44458   0.00000  Uiso   1.00
H2994  H     0.27730   0.79243   0.31585   0.00000  Uiso   1.00
H2995  H     0.32651   0.86102   0.42329   0.00000  Uiso   1.00
H2996  H     0.30342   0.86348   0.43258   0.00000  Uiso   1.00
Fe2997 Fe    0.37500   0.98961   0.31250   0.00000  Uiso   1.00
Fe2998 Fe    0.25000   0.86461   0.31250   0.00000  Uiso   1.00
Fe2999 Fe    0.37500   0.76039   0.43750   0.00000  Uiso   1.00
Fe3000 Fe    0.25000   0.88539   0.43750   0.00000  Uiso   1.00
C3001  C     0.65202   0.78174   0.29052   0.00000  Uiso   1.00
C3002  C     0.65017   0.81671   0.46983   0.00000  Uiso   1.00
C3003  C     0.65898   0.80333   0.25529   0.00000  Uiso   1.00
C3004  C     0.67378   0.81104   0.25552   0.00000  Uiso   1.00
C3005  C     0.69582   0.78368   0.27869   0.00000  Uiso   1.00
C3006  C     0.68211   0.78221   0.28420   0.00000  Uiso   1.00
N3007  N     0.63891   0.78177   0.27682   0.00000  Uiso   1.00
N3008  N     0.63776   0.80338   0.48314   0.00000  Uiso   1.00
H3009  H     0.65568   0.76889   0.31958   0.00000  Uiso   1.00
H3010  H     0.65230   0.83257   0.44085   0.00000  Uiso   1.00
H3011  H     0.70151   0.76398   0.29829   0.00000  Uiso   1.00
H3012  H     0.67842   0.76152   0.30758   0.00000  Uiso   1.00
C3013  C     0.52702   0.90674   0.29052   0.00000  Uiso   1.00
C3014  C     0.52517   0.94171   0.46983   0.00000  Uiso   1.00
C3015  C     0.53398   0.92833   0.25529   0.00000  Uiso   1.00
C3016  C     0.54878   0.93604   0.25552   0.00000  Uiso   1.00
C3017  C     0.57082   0.90868   0.27869   0.00000  Uiso   1.00
C3018  C     0.55711   0.90721   0.28420   0.00000  Uiso   1.00
N3019  N     0.51391   0.90677   0.27682   0.00000  Uiso   1.00
N3020  N     0.51276   0.92838   0.48314   0.00000  Uiso   1.00
H3021  H     0.53068   0.89389   0.31958   0.00000  Uiso   1.00
H3022  H     0.52730   0.95757   0.44085   0.00000  Uiso   1.00
H3023  H     0.57651   0.88898   0.29829   0.00000  Uiso   1.00
H3024  H     0.55342   0.88652   0.30758   0.00000  Uiso   1.00
C3025  C     0.59798   0.78174   0.33448   0.00000  Uiso   1.00
C3026  C     0.59983   0.81671   0.40517   0.00000  Uiso   1.00
C3027  C     0.59102   0.80333   0.36971   0.00000  Uiso   1.00
C3028  C     0.57622   0.81104   0.36948   0.00000  Uiso   1.00
C3029  C     0.55418   0.78368   0.34631   0.00000  Uiso   1.00
C3030  C     0.56789   0.78221   0.34080   0.00000  Uiso   1.00
N3031  N     0.61109   0.78177   0.34818   0.00000  Uiso   1.00
N3032  N     0.61224   0.80338   0.39186   0.00000  Uiso   1.00
H3033  H     0.59432   0.76889   0.30542   0.00000  Uiso   1.00
H3034  H     0.59770   0.83257   0.43415   0.00000  Uiso   1.00
H3035  H     0.54849   0.76398   0.32671   0.00000  Uiso   1.00
H3036  H     0.57158   0.76152   0.31742   0.00000  Uiso   1.00
C3037  C     0.72298   0.90674   0.33448   0.00000  Uiso   1.00
C3038  C     0.72483   0.94171   0.40517   0.00000  Uiso   1.00
C3039  C     0.71602   0.92833   0.36971   0.00000  Uiso   1.00
C3040  C     0.70122   0.93604   0.36948   0.00000  Uiso   1.00
C3041  C     0.67918   0.90868   0.34631   0.00000  Uiso   1.00
C3042  C     0.69289   0.90721   0.34080   0.00000  Uiso   1.00
N3043  N     0.73609   0.90677   0.34818   0.00000  Uiso   1.00
N3044  N     0.73724   0.92838   0.39186   0.00000  Uiso   1.00
H3045  H     0.71932   0.89389   0.30542   0.00000  Uiso   1.00
H3046  H     0.72270   0.95757   0.43415   0.00000  Uiso   1.00
H3047  H     0.67349   0.88898   0.32671   0.00000  Uiso   1.00
H3048  H     0.69658   0.88652   0.31742   0.00000  Uiso   1.00
C3049  C     0.59798   0.96826   0.45948   0.00000  Uiso   1.00
C3050  C     0.59983   0.93329   0.28017   0.00000  Uiso   1.00
C3051  C     0.59102   0.94667   0.49471   0.00000  Uiso   1.00
C3052  C     0.57622   0.93896   0.49448   0.00000  Uiso   1.00
C3053  C     0.55418   0.96632   0.47131   0.00000  Uiso   1.00
C3054  C     0.56789   0.96779   0.46580   0.00000  Uiso   1.00
N3055  N     0.61109   0.96823   0.47318   0.00000  Uiso   1.00
N3056  N     0.61224   0.94662   0.26686   0.00000  Uiso   1.00
H3057  H     0.59432   0.98111   0.43042   0.00000  Uiso   1.00
H3058  H     0.59770   0.91743   0.30915   0.00000  Uiso   1.00
H3059  H     0.54849   0.98602   0.45171   0.00000  Uiso   1.00
H3060  H     0.57158   0.98848   0.44242   0.00000  Uiso   1.00
C3061  C     0.72298   0.84326   0.45948   0.00000  Uiso   1.00
C3062  C     0.72483   0.80829   0.28017   0.00000  Uiso   1.00
C3063  C     0.71602   0.82167   0.49471   0.00000  Uiso   1.00
C3064  C     0.70122   0.81396   0.49448   0.00000  Uiso   1.00
C3065  C     0.67918   0.84132   0.47131   0.00000  Uiso   1.00
C3066  C     0.69289   0.84279   0.46580   0.00000  Uiso   1.00
N3067  N     0.73609   0.84323   0.47318   0.00000  Uiso   1.00
N3068  N     0.73724   0.82162   0.26686   0.00000  Uiso   1.00
H3069  H     0.71932   0.85611   0.43042   0.00000  Uiso   1.00
H3070  H     0.72270   0.79243   0.30915   0.00000  Uiso   1.00
H3071  H     0.67349   0.86102   0.45171   0.00000  Uiso   1.00
H3072  H     0.69658   0.86348   0.44242   0.00000  Uiso   1.00
C3073  C     0.65202   0.96826   0.41552   0.00000  Uiso   1.00
C3074  C     0.65017   0.93329   0.34483   0.00000  Uiso   1.00
C3075  C     0.65898   0.94667   0.38029   0.00000  Uiso   1.00
C3076  C     0.67378   0.93896   0.38052   0.00000  Uiso   1.00
C3077  C     0.69582   0.96632   0.40369   0.00000  Uiso   1.00
C3078  C     0.68211   0.96779   0.40920   0.00000  Uiso   1.00
N3079  N     0.63891   0.96823   0.40182   0.00000  Uiso   1.00
N3080  N     0.63776   0.94662   0.35814   0.00000  Uiso   1.00
H3081  H     0.65568   0.98111   0.44458   0.00000  Uiso   1.00
H3082  H     0.65230   0.91743   0.31585   0.00000  Uiso   1.00
H3083  H     0.70151   0.98602   0.42329   0.00000  Uiso   1.00
H3084  H     0.67842   0.98848   0.43258   0.00000  Uiso   1.00
C3085  C     0.52702   0.84326   0.41552   0.00000  Uiso   1.00
C3086  C     0.52517   0.80829   0.34483   0.00000  Uiso   1.00
C3087  C     0.53398   0.82167   0.38029   0.00000  Uiso   1.00
C3088  C     0.54878   0.81396   0.38052   0.00000  Uiso   1.00
C3089  C     0.57082   0.84132   0.40369   0.00000  Uiso   1.00
C3090  C     0.55711   0.84279   0.40920   0.00000  Uiso   1.00
N3091  N     0.51391   0.84323   0.40182   0.00000  Uiso   1.00
N3092  N     0.51276   0.82162   0.35814   0.00000  Uiso   1.00
H3093  H     0.53068   0.85611   0.44458   0.00000  Uiso   1.00
H3094  H     0.52730   0.79243   0.31585   0.00000  Uiso   1.00
H3095  H     0.57651   0.86102   0.42329   0.00000  Uiso   1.00
H3096  H     0.55342   0.86348   0.43258   0.00000  Uiso   1.00
Fe3097 Fe    0.62500   0.98961   0.31250   0.00000  Uiso   1.00
Fe3098 Fe    0.50000   0.86461   0.31250   0.00000  Uiso   1.00
Fe3099 Fe    0.62500   0.76039   0.43750   0.00000  Uiso   1.00
Fe3100 Fe    0.50000   0.88539   0.43750   0.00000  Uiso   1.00
C3101  C     0.90202   0.78174   0.29052   0.00000  Uiso   1.00
C3102  C     0.90017   0.81671   0.46983   0.00000  Uiso   1.00
C3103  C     0.90898   0.80333   0.25529   0.00000  Uiso   1.00
C3104  C     0.92378   0.81104   0.25552   0.00000  Uiso   1.00
C3105  C     0.94582   0.78368   0.27869   0.00000  Uiso   1.00
C3106  C     0.93211   0.78221   0.28420   0.00000  Uiso   1.00
N3107  N     0.88891   0.78177   0.27682   0.00000  Uiso   1.00
N3108  N     0.88776   0.80338   0.48314   0.00000  Uiso   1.00
H3109  H     0.90568   0.76889   0.31958   0.00000  Uiso   1.00
H3110  H     0.90230   0.83257   0.44085   0.00000  Uiso   1.00
H3111  H     0.95151   0.76398   0.29829   0.00000  Uiso   1.00
H3112  H     0.92842   0.76152   0.30758   0.00000  Uiso   1.00
C3113  C     0.77702   0.90674   0.29052   0.00000  Uiso   1.00
C3114  C     0.77517   0.94171   0.46983   0.00000  Uiso   1.00
C3115  C     0.78398   0.92833   0.25529   0.00000  Uiso   1.00
C3116  C     0.79878   0.93604   0.25552   0.00000  Uiso   1.00
C3117  C     0.82082   0.90868   0.27869   0.00000  Uiso   1.00
C3118  C     0.80711   0.90721   0.28420   0.00000  Uiso   1.00
N3119  N     0.76391   0.90677   0.27682   0.00000  Uiso   1.00
N3120  N     0.76276   0.92838   0.48314   0.00000  Uiso   1.00
H3121  H     0.78068   0.89389   0.31958   0.00000  Uiso   1.00
H3122  H     0.77730   0.95757   0.44085   0.00000  Uiso   1.00
H3123  H     0.82651   0.88898   0.29829   0.00000  Uiso   1.00
H3124  H     0.80342   0.88652   0.30758   0.00000  Uiso   1.00
C3125  C     0.84798   0.78174   0.33448   0.00000  Uiso   1.00
C3126  C     0.84983   0.81671   0.40517   0.00000  Uiso   1.00
C3127  C     0.84102   0.80333   0.36971   0.00000  Uiso   1.00
C3128  C     0.82622   0.81104   0.36948   0.00000  Uiso   1.00
C3129  C     0.80418   0.78368   0.34631   0.00000  Uiso   1.00
C3130  C     0.81789   0.78221   0.34080   0.00000  Uiso   1.00
N3131  N     0.86109   0.78177   0.34818   0.00000  Uiso   1.00
N3132  N     0.86224   0.80338   0.39186   0.00000  Uiso   1.00
H3133  H     0.84432   0.76889   0.30542   0.00000  Uiso   1.00
H3134  H     0.84770   0.83257   0.43415   0.00000  Uiso   1.00
H3135  H     0.79849   0.76398   0.32671   0.00000  Uiso   1.00
H3136  H     0.82158   0.76152   0.31742   0.00000  Uiso   1.00
C3137  C     0.97298   0.90674   0.33448   0.00000  Uiso   1.00
C3138  C     0.97483   0.94171   0.40517   0.00000  Uiso   1.00
C3139  C     0.96602   0.92833   0.36971   0.00000  Uiso   1.00
C3140  C     0.95122   0.93604   0.36948   0.00000  Uiso   1.00
C3141  C     0.92918   0.90868   0.34631   0.00000  Uiso   1.00
C3142  C     0.94289   0.90721   0.34080   0.00000  Uiso   1.00
N3143  N     0.98609   0.90677   0.34818   0.00000  Uiso   1.00
N3144  N     0.98724   0.92838   0.39186   0.00000  Uiso   1.00
H3145  H     0.96932   0.89389   0.30542   0.00000  Uiso   1.00
H3146  H     0.97270   0.95757   0.43415   0.00000  Uiso   1.00
H3147  H     0.92349   0.88898   0.32671   0.00000  Uiso   1.00
H3148  H     0.94658   0.88652   0.31742   0.00000  Uiso   1.00
C3149  C     0.84798   0.96826   0.45948   0.00000  Uiso   1.00
C3150  C     0.84983   0.93329   0.28017   0.00000  Uiso   1.00
C3151  C     0.84102   0.94667   0.49471   0.00000  Uiso   1.00
C3152  C     0.82622   0.93896   0.49448   0.00000  Uiso   1.00
C3153  C     0.80418   0.96632   0.47131   0.00000  Uiso   1.00
C3154  C     0.81789   0.96779   0.46580   0.00000  Uiso   1.00
N3155  N     0.86109   0.96823   0.47318   0.00000  Uiso   1.00
N3156  N     0.86224   0.94662   0.26686   0.00000  Uiso   1.00
H3157  H     0.84432   0.98111   0.43042   0.00000  Uiso   1.00
H3158  H     0.84770   0.91743   0.30915   0.00000  Uiso   1.00
H3159  H     0.79849   0.98602   0.45171   0.00000  Uiso   1.00
H3160  H     0.82158   0.98848   0.44242   0.00000  Uiso   1.00
C3161  C     0.97298   0.84326   0.45948   0.00000  Uiso   1.00
C3162  C     0.97483   0.80829   0.28017   0.00000  Uiso   1.00
C3163  C     0.96602   0.82167   0.49471   0.00000  Uiso   1.00
C3164  C     0.95122   0.81396   0.49448   0.00000  Uiso   1.00
C3165  C     0.92918   0.84132   0.47131   0.00000  Uiso   1.00
C3166  C     0.94289   0.84279   0.46580   0.00000  Uiso   1.00
N3167  N     0.98609   0.84323   0.47318   0.00000  Uiso   1.00
N3168  N     0.98724   0.82162   0.26686   0.00000  Uiso   1.00
H3169  H     0.96932   0.85611   0.43042   0.00000  Uiso   1.00
H3170  H     0.97270   0.79243   0.30915   0.00000  Uiso   1.00
H3171  H     0.92349   0.86102   0.45171   0.00000  Uiso   1.00
H3172  H     0.94658   0.86348   0.44242   0.00000  Uiso   1.00
C3173  C     0.90202   0.96826   0.41552   0.00000  Uiso   1.00
C3174  C     0.90017   0.93329   0.34483   0.00000  Uiso   1.00
C3175  C     0.90898   0.94667   0.38029   0.00000  Uiso   1.00
C3176  C     0.92378   0.93896   0.38052   0.00000  Uiso   1.00
C3177  C     0.94582   0.96632   0.40369   0.00000  Uiso   1.00
C3178  C     0.93211   0.96779   0.40920   0.00000  Uiso   1.00
N3179  N     0.88891   0.96823   0.40182   0.00000  Uiso   1.00
N3180  N     0.88776   0.94662   0.35814   0.00000  Uiso   1.00
H3181  H     0.90568   0.98111   0.44458   0.00000  Uiso   1.00
H3182  H     0.90230   0.91743   0.31585   0.00000  Uiso   1.00
H3183  H     0.95151   0.98602   0.42329   0.00000  Uiso   1.00
H3184  H     0.92842   0.98848   0.43258   0.00000  Uiso   1.00
C3185  C     0.77702   0.84326   0.41552   0.00000  Uiso   1.00
C3186  C     0.77517   0.80829   0.34483   0.00000  Uiso   1.00
C3187  C     0.78398   0.82167   0.38029   0.00000  Uiso   1.00
C3188  C     0.79878   0.81396   0.38052   0.00000  Uiso   1.00
C3189  C     0.82082   0.84132   0.40369   0.00000  Uiso   1.00
C3190  C     0.80711   0.84279   0.40920   0.00000  Uiso   1.00
N3191  N     0.76391   0.84323   0.40182   0.00000  Uiso   1.00
N3192  N     0.76276   0.82162   0.35814   0.00000  Uiso   1.00
H3193  H     0.78068   0.85611   0.44458   0.00000  Uiso   1.00
H3194  H     0.77730   0.79243   0.31585   0.00000  Uiso   1.00
H3195  H     0.82651   0.86102   0.42329   0.00000  Uiso   1.00
H3196  H     0.80342   0.86348   0.43258   0.00000  Uiso   1.00
Fe3197 Fe    0.87500   0.98961   0.31250   0.00000  Uiso   1.00
Fe3198 Fe    0.75000   0.86461   0.31250   0.00000  Uiso   1.00
Fe3199 Fe    0.87500   0.76039   0.43750   0.00000  Uiso   1.00
Fe3200 Fe    0.75000   0.88539   0.43750   0.00000  Uiso   1.00
C3201  C     0.15202   0.03174   0.54052   0.00000  Uiso   1.00
C3202  C     0.15017   0.06671   0.71983   0.00000  Uiso   1.00
C3203  C     0.15898   0.05333   0.50529   0.00000  Uiso   1.00
C3204  C     0.17378   0.06104   0.50552   0.00000  Uiso   1.00
C3205  C     0.19582   0.03368   0.52869   0.00000  Uiso   1.00
C3206  C     0.18211   0.03221   0.53420   0.00000  Uiso   1.00
N3207  N     0.13891   0.03177   0.52682   0.00000  Uiso   1.00
N3208  N     0.13776   0.05338   0.73314   0.00000  Uiso   1.00
H3209  H     0.15568   0.01889   0.56958   0.00000  Uiso   1.00
H3210  H     0.15230   0.08257   0.69085   0.00000  Uiso   1.00
H3211  H     0.20151   0.01398   0.54829   0.00000  Uiso   1.00
H3212  H     0.17842   0.01152   0.55758   0.00000  Uiso   1.00
C3213  C     0.02702   0.15674   0.54052   0.00000  Uiso   1.00
C3214  C     0.02517   0.19171   0.71983   0.00000  Uiso   1.00
C3215  C     0.03398   0.17833   0.50529   0.00000  Uiso   1.00
C3216  C     0.04878   0.18604   0.50552   0.00000  Uiso   1.00
C3217  C     0.07082   0.15868   0.52869   0.00000  Uiso   1.00
C3218  C     0.05711   0.15721   0.53420   0.00000  Uiso   1.00
N3219  N     0.01391   0.15677   0.52682   0.00000  Uiso   1.00
N3220  N     0.01276   0.17838   0.73314   0.00000  Uiso   1.00
H3221  H     0.03068   0.14389   0.56958   0.00000  Uiso   1.00
H3222  H     0.02730   0.20757   0.69085   0.00000  Uiso   1.00
H3223  H     0.07651   0.13898   0.54829   0.00000  Uiso   1.00
H3224  H     0.05342   0.13652   0.55758   0.00000  Uiso   1.00
C3225  C     0.09798   0.03174   0.58448   0.00000  Uiso   1.00
C3226  C     0.09983   0.06671   0.65517   0.00000  Uiso   1.00
C3227  C     0.09102   0.05333   0.61971   0.00000  Uiso   1.00
C3228  C     0.07622   0.06104   0.61948   0.00000  Uiso   1.00
C3229  C     0.05418   0.03368   0.59631   0.00000  Uiso   1.00
C3230  C     0.06789   0.03221   0.59080   0.00000  Uiso   1.00
N3231  N     0.11109   0.03177   0.59818   0.00000  Uiso   1.00
N3232  N     0.11224   0.05338   0.64186   0.00000  Uiso   1.00
H3233  H     0.09432   0.01889   0.55542   0.00000  Uiso   1.00
H3234  H     0.09770   0.08257   0.68415   0.00000  Uiso   1.00
H3235  H     0.04849   0.01398   0.57671   0.00000  Uiso   1.00
H3236  H     0.07158   0.01152   0.56742   0.00000  Uiso   1.00
C3237  C     0.22298   0.15674   0.58448   0.00000  Uiso   1.00
C3238  C     0.22483   0.19171   0.65517   0.00000  Uiso   1.00
C3239  C     0.21602   0.17833   0.61971   0.00000  Uiso   1.00
C3240  C     0.20122   0.18604   0.61948   0.00000  Uiso   1.00
C3241  C     0.17918   0.15868   0.59631   0.00000  Uiso   1.00
C3242  C     0.19289   0.15721   0.59080   0.00000  Uiso   1.00
N3243  N     0.23609   0.15677   0.59818   0.00000  Uiso   1.00
N3244  N     0.23724   0.17838   0.64186   0.00000  Uiso   1.00
H3245  H     0.21932   0.14389   0.55542   0.00000  Uiso   1.00
H3246  H     0.22270   0.20757   0.68415   0.00000  Uiso   1.00
H3247  H     0.17349   0.13898   0.57671   0.00000  Uiso   1.00
H3248  H     0.19658   0.13652   0.56742   0.00000  Uiso   1.00
C3249  C     0.09798   0.21826   0.70948   0.00000  Uiso   1.00
C3250  C     0.09983   0.18329   0.53017   0.00000  Uiso   1.00
C3251  C     0.09102   0.19667   0.74471   0.00000  Uiso   1.00
C3252  C     0.07622   0.18896   0.74448   0.00000  Uiso   1.00
C3253  C     0.05418   0.21632   0.72131   0.00000  Uiso   1.00
C3254  C     0.06789   0.21779   0.71580   0.00000  Uiso   1.00
N3255  N     0.11109   0.21823   0.72318   0.00000  Uiso   1.00
N3256  N     0.11224   0.19662   0.51686   0.00000  Uiso   1.00
H3257  H     0.09432   0.23111   0.68042   0.00000  Uiso   1.00
H3258  H     0.09770   0.16743   0.55915   0.00000  Uiso   1.00
H3259  H     0.04849   0.23602   0.70171   0.00000  Uiso   1.00
H3260  H     0.07158   0.23848   0.69242   0.00000  Uiso   1.00
C3261  C     0.22298   0.09326   0.70948   0.00000  Uiso   1.00
C3262  C     0.22483   0.05829   0.53017   0.00000  Uiso   1.00
C3263  C     0.21602   0.07167   0.74471   0.00000  Uiso   1.00
C3264  C     0.20122   0.06396   0.74448   0.00000  Uiso   1.00
C3265  C     0.17918   0.09132   0.72131   0.00000  Uiso   1.00
C3266  C     0.19289   0.09279   0.71580   0.00000  Uiso   1.00
N3267  N     0.23609   0.09323   0.72318   0.00000  Uiso   1.00
N3268  N     0.23724   0.07162   0.51686   0.00000  Uiso   1.00
H3269  H     0.21932   0.10611   0.68042   0.00000  Uiso   1.00
H3270  H     0.22270   0.04243   0.55915   0.00000  Uiso   1.00
H3271  H     0.17349   0.11102   0.70171   0.00000  Uiso   1.00
H3272  H     0.19658   0.11348   0.69242   0.00000  Uiso   1.00
C3273  C     0.15202   0.21826   0.66552   0.00000  Uiso   1.00
C3274  C     0.15017   0.18329   0.59483   0.00000  Uiso   1.00
C3275  C     0.15898   0.19667   0.63029   0.00000  Uiso   1.00
C3276  C     0.17378   0.18896   0.63052   0.00000  Uiso   1.00
C3277  C     0.19582   0.21632   0.65369   0.00000  Uiso   1.00
C3278  C     0.18211   0.21779   0.65920   0.00000  Uiso   1.00
N3279  N     0.13891   0.21823   0.65182   0.00000  Uiso   1.00
N3280  N     0.13776   0.19662   0.60814   0.00000  Uiso   1.00
H3281  H     0.15568   0.23111   0.69458   0.00000  Uiso   1.00
H3282  H     0.15230   0.16743   0.56585   0.00000  Uiso   1.00
H3283  H     0.20151   0.23602   0.67329   0.00000  Uiso   1.00
H3284  H     0.17842   0.23848   0.68258   0.00000  Uiso   1.00
C3285  C     0.02702   0.09326   0.66552   0.00000  Uiso   1.00
C3286  C     0.02517   0.05829   0.59483   0.00000  Uiso   1.00
C3287  C     0.03398   0.07167   0.63029   0.00000  Uiso   1.00
C3288  C     0.04878   0.06396   0.63052   0.00000  Uiso   1.00
C3289  C     0.07082   0.09132   0.65369   0.00000  Uiso   1.00
C3290  C     0.05711   0.09279   0.65920   0.00000  Uiso   1.00
N3291  N     0.01391   0.09323   0.65182   0.00000  Uiso   1.00
N3292  N     0.01276   0.07162   0.60814   0.00000  Uiso   1.00
H3293  H     0.03068   0.10611   0.69458   0.00000  Uiso   1.00
H3294  H     0.02730   0.04243   0.56585   0.00000  Uiso   1.00
H3295  H     0.07651   0.11102   0.67329   0.00000  Uiso   1.00
H3296  H     0.05342   0.11348   0.68258   0.00000  Uiso   1.00
Fe3297 Fe    0.12500   0.23961   0.56250   0.00000  Uiso   1.00
Fe3298 Fe    0.00000   0.11461   0.56250   0.00000  Uiso   1.00
Fe3299 Fe    0.12500   0.01039   0.68750   0.00000  Uiso   1.00
Fe3300 Fe   -0.00000   0.13539   0.68750   0.00000  Uiso   1.00
C3301  C     0.40202   0.03174   0.54052   0.00000  Uiso   1.00
C3302  C     0.40017   0.06671   0.71983   0.00000  Uiso   1.00
C3303  C     0.40898   0.05333   0.50529   0.00000  Uiso   1.00
C3304  C     0.42378   0.06104   0.50552   0.00000  Uiso   1.00
C3305  C     0.44582   0.03368   0.52869   0.00000  Uiso   1.00
C3306  C     0.43211   0.03221   0.53420   0.00000  Uiso   1.00
N3307  N     0.38891   0.03177   0.52682   0.00000  Uiso   1.00
N3308  N     0.38776   0.05338   0.73314   0.00000  Uiso   1.00
H3309  H     0.40568   0.01889   0.56958   0.00000  Uiso   1.00
H3310  H     0.40230   0.08257   0.69085   0.00000  Uiso   1.00
H3311  H     0.45151   0.01398   0.54829   0.00000  Uiso   1.00
H3312  H     0.42842   0.01152   0.55758   0.00000  Uiso   1.00
C3313  C     0.27702   0.15674   0.54052   0.00000  Uiso   1.00
C3314  C     0.27517   0.19171   0.71983   0.00000  Uiso   1.00
C3315  C     0.28398   0.17833   0.50529   0.00000  Uiso   1.00
C3316  C     0.29878   0.18604   0.50552   0.00000  Uiso   1.00
C3317  C     0.32082   0.15868   0.52869   0.00000  Uiso   1.00
C3318  C     0.30711   0.15721   0.53420   0.00000  Uiso   1.00
N3319  N     0.26391   0.15677   0.52682   0.00000  Uiso   1.00
N3320  N     0.26276   0.17838   0.73314   0.00000  Uiso   1.00
H3321  H     0.28068   0.14389   0.56958   0.00000  Uiso   1.00
H3322  H     0.27730   0.20757   0.69085   0.00000  Uiso   1.00
H3323  H     0.32651   0.13898   0.54829   0.00000  Uiso   1.00
H3324  H     0.30342   0.13652   0.55758   0.00000  Uiso   1.00
C3325  C     0.34798   0.03174   0.58448   0.00000  Uiso   1.00
C3326  C     0.34983   0.06671   0.65517   0.00000  Uiso   1.00
C3327  C     0.34102   0.05333   0.61971   0.00000  Uiso   1.00
C3328  C     0.32622   0.06104   0.61948   0.00000  Uiso   1.00
C3329  C     0.30418   0.03368   0.59631   0.00000  Uiso   1.00
C3330  C     0.31789   0.03221   0.59080   0.00000  Uiso   1.00
N3331  N     0.36109   0.03177   0.59818   0.00000  Uiso   1.00
N3332  N     0.36224   0.05338   0.64186   0.00000  Uiso   1.00
H3333  H     0.34432   0.01889   0.55542   0.00000  Uiso   1.00
H3334  H     0.34770   0.08257   0.68415   0.00000  Uiso   1.00
H3335  H     0.29849   0.01398   0.57671   0.00000  Uiso   1.00
H3336  H     0.32158   0.01152   0.56742   0.00000  Uiso   1.00
C3337  C     0.47298   0.15674   0.58448   0.00000  Uiso   1.00
C3338  C     0.47483   0.19171   0.65517   0.00000  Uiso   1.00
C3339  C     0.46602   0.17833   0.61971   0.00000  Uiso   1.00
C3340  C     0.45122   0.18604   0.61948   0.00000  Uiso   1.00
C3341  C     0.42918   0.15868   0.59631   0.00000  Uiso   1.00
C3342  C     0.44289   0.15721   0.59080   0.00000  Uiso   1.00
N3343  N     0.48609   0.15677   0.59818   0.00000  Uiso   1.00
N3344  N     0.48724   0.17838   0.64186   0.00000  Uiso   1.00
H3345  H     0.46932   0.14389   0.55542   0.00000  Uiso   1.00
H3346  H     0.47270   0.20757   0.68415   0.00000  Uiso   1.00
H3347  H     0.42349   0.13898   0.57671   0.00000  Uiso   1.00
H3348  H     0.44658   0.13652   0.56742   0.00000  Uiso   1.00
C3349  C     0.34798   0.21826   0.70948   0.00000  Uiso   1.00
C3350  C     0.34983   0.18329   0.53017   0.00000  Uiso   1.00
C3351  C     0.34102   0.19667   0.74471   0.00000  Uiso   1.00
C3352  C     0.32622   0.18896   0.74448   0.00000  Uiso   1.00
C3353  C     0.30418   0.21632   0.72131   0.00000  Uiso   1.00
C3354  C     0.31789   0.21779   0.71580   0.00000  Uiso   1.00
N3355  N     0.36109   0.21823   0.72318   0.00000  Uiso   1.00
N3356  N     0.36224   0.19662   0.51686   0.00000  Uiso   1.00
H3357  H     0.34432   0.23111   0.68042   0.00000  Uiso   1.00
H3358  H     0.34770   0.16743   0.55915   0.00000  Uiso   1.00
H3359  H     0.29849   0.23602   0.70171   0.00000  Uiso   1.00
H3360  H     0.32158   0.23848   0.69242   0.00000  Uiso   1.00
C3361  C     0.47298   0.09326   0.70948   0.00000  Uiso   1.00
C3362  C     0.47483   0.05829   0.53017   0.00000  Uiso   1.00
C3363  C     0.46602   0.07167   0.74471   0.00000  Uiso   1.00
C3364  C     0.45122   0.06396   0.74448   0.00000  Uiso   1.00
C3365  C     0.42918   0.09132   0.72131   0.00000  Uiso   1.00
C3366  C     0.44289   0.09279   0.71580   0.00000  Uiso   1.00
N3367  N     0.48609   0.09323   0.72318   0.00000  Uiso   1.00
N3368  N     0.48724   0.07162   0.51686   0.00000  Uiso   1.00
H3369  H     0.46932   0.10611   0.68042   0.00000  Uiso   1.00
H3370  H     0.47270   0.04243   0.55915   0.00000  Uiso   1.00
H3371  H     0.42349   0.11102   0.70171   0.00000  Uiso   1.00
H3372  H     0.44658   0.11348   0.69242   0.00000  Uiso   1.00
C3373  C     0.40202   0.21826   0.66552   0.00000  Uiso   1.00
C3374  C     0.40017   0.18329   0.59483   0.00000  Uiso   1.00
C3375  C     0.40898   0.19667   0.63029   0.00000  Uiso   1.00
C3376  C     0.42378   0.18896   0.63052   0.00000  Uiso   1.00
C3377  C     0.44582   0.21632   0.65369   0.00000  Uiso   1.00
C3378  C     0.43211   0.21779   0.65920   0.00000  Uiso   1.00
N3379  N     0.38891   0.21823   0.65182   0.00000  Uiso   1.00
N3380  N     0.38776   0.19662   0.60814   0.00000  Uiso   1.00
H3381  H     0.40568   0.23111   0.69458   0.00000  Uiso   1.00
H3382  H     0.40230   0.16743   0.56585   0.00000  Uiso   1.00
H3383  H     0.45151   0.23602   0.67329   0.00000  Uiso   1.00
H3384  H     0.42842   0.23848   0.68258   0.00000  Uiso   1.00
C3385  C     0.27702   0.09326   0.66552   0.00000  Uiso   1.00
C3386  C     0.27517   0.05829   0.59483   0.00000  Uiso   1.00
C3387  C     0.28398   0.07167   0.63029   0.00000  Uiso   1.00
C3388  C     0.29878   0.06396   0.63052   0.00000  Uiso   1.00
C3389  C     0.32082   0.09132   0.65369   0.00000  Uiso   1.00
C3390  C     0.30711   0.09279   0.65920   0.00000  Uiso   1.00
N3391  N     0.26391   0.09323   0.65182   0.00000  Uiso   1.00
N3392  N     0.26276   0.07162   0.60814   0.00000  Uiso   1.00
H3393  H     0.28068   0.10611   0.69458   0.00000  Uiso   1.00
H3394  H     0.27730   0.04243   0.56585   0.00000  Uiso   1.00
H3395  H     0.32651   0.11102   0.67329   0.00000  Uiso   1.00
H3396  H     0.30342   0.11348   0.68258   0.00000  Uiso   1.00
Fe3397 Fe    0.37500   0.23961   0.56250   0.00000  Uiso   1.00
Fe3398 Fe    0.25000   0.11461   0.56250   0.00000  Uiso   1.00
Fe3399 Fe    0.37500   0.01039   0.68750   0.00000  Uiso   1.00
Fe3400 Fe    0.25000   0.13539   0.68750   0.00000  Uiso   1.00
C3401  C     0.65202   0.03174   0.54052   0.00000  Uiso   1.00
C3402  C     0.65017   0.06671   0.71983   0.00000  Uiso   1.00
C3403  C     0.65898   0.05333   0.50529   0.00000  Uiso   1.00
C3404  C     0.67378   0.06104   0.50552   0.00000  Uiso   1.00
C3405  C     0.69582   0.03368   0.52869   0.00000  Uiso   1.00
C3406  C     0.68211   0.03221   0.53420   0.00000  Uiso   1.00
N3407  N     0.63891   0.03177   0.52682   0.00000  Uiso   1.00
N3408  N     0.63776   0.05338   0.73314   0.00000  Uiso   1.00
H3409  H     0.65568   0.01889   0.56958   0.00000  Uiso   1.00
H3410  H     0.65230   0.08257   0.69085   0.00000  Uiso   1.00
H3411  H     0.70151   0.01398   0.54829   0.00000  Uiso   1.00
H3412  H     0.67842   0.01152   0.55758   0.00000  Uiso   1.00
C3413  C     0.52702   0.15674   0.54052   0.00000  Uiso   1.00
C3414  C     0.52517   0.19171   0.71983   0.00000  Uiso   1.00
C3415  C     0.53398   0.17833   0.50529   0.00000  Uiso   1.00
C3416  C     0.54878   0.18604   0.50552   0.00000  Uiso   1.00
C3417  C     0.57082   0.15868   0.52869   0.00000  Uiso   1.00
C3418  C     0.55711   0.15721   0.53420   0.00000  Uiso   1.00
N3419  N     0.51391   0.15677   0.52682   0.00000  Uiso   1.00
N3420  N     0.51276   0.17838   0.73314   0.00000  Uiso   1.00
H3421  H     0.53068   0.14389   0.56958   0.00000  Uiso   1.00
H3422  H     0.52730   0.20757   0.69085   0.00000  Uiso   1.00
H3423  H     0.57651   0.13898   0.54829   0.00000  Uiso   1.00
H3424  H     0.55342   0.13652   0.55758   0.00000  Uiso   1.00
C3425  C     0.59798   0.03174   0.58448   0.00000  Uiso   1.00
C3426  C     0.59983   0.06671   0.65517   0.00000  Uiso   1.00
C3427  C     0.59102   0.05333   0.61971   0.00000  Uiso   1.00
C3428  C     0.57622   0.06104   0.61948   0.00000  Uiso   1.00
C3429  C     0.55418   0.03368   0.59631   0.00000  Uiso   1.00
C3430  C     0.56789   0.03221   0.59080   0.00000  Uiso   1.00
N3431  N     0.61109   0.03177   0.59818   0.00000  Uiso   1.00
N3432  N     0.61224   0.05338   0.64186   0.00000  Uiso   1.00
H3433  H     0.59432   0.01889   0.55542   0.00000  Uiso   1.00
H3434  H     0.59770   0.08257   0.68415   0.00000  Uiso   1.00
H3435  H     0.54849   0.01398   0.57671   0.00000  Uiso   1.00
H3436  H     0.57158   0.01152   0.56742   0.00000  Uiso   1.00
C3437  C     0.72298   0.15674   0.58448   0.00000  Uiso   1.00
C3438  C     0.72483   0.19171   0.65517   0.00000  Uiso   1.00
C3439  C     0.71602   0.17833   0.61971   0.00000  Uiso   1.00
C3440  C     0.70122   0.18604   0.61948   0.00000  Uiso   1.00
C3441  C     0.67918   0.15868   0.59631   0.00000  Uiso   1.00
C3442  C     0.69289   0.15721   0.59080   0.00000  Uiso   1.00
N3443  N     0.73609   0.15677   0.59818   0.00000  Uiso   1.00
N3444  N     0.73724   0.17838   0.64186   0.00000  Uiso   1.00
H3445  H     0.71932   0.14389   0.55542   0.00000  Uiso   1.00
H3446  H     0.72270   0.20757   0.68415   0.00000  Uiso   1.00
H3447  H     0.67349   0.13898   0.57671   0.00000  Uiso   1.00
H3448  H     0.69658   0.13652   0.56742   0.00000  Uiso   1.00
C3449  C     0.59798   0.21826   0.70948   0.00000  Uiso   1.00
C3450  C     0.59983   0.18329   0.53017   0.00000  Uiso   1.00
C3451  C     0.59102   0.19667   0.74471   0.00000  Uiso   1.00
C3452  C     0.57622   0.18896   0.74448   0.00000  Uiso   1.00
C3453  C     0.55418   0.21632   0.72131   0.00000  Uiso   1.00
C3454  C     0.56789   0.21779   0.71580   0.00000  Uiso   1.00
N3455  N     0.61109   0.21823   0.72318   0.00000  Uiso   1.00
N3456  N     0.61224   0.19662   0.51686   0.00000  Uiso   1.00
H3457  H     0.59432   0.23111   0.68042   0.00000  Uiso   1.00
H3458  H     0.59770   0.16743   0.55915   0.00000  Uiso   1.00
H3459  H     0.54849   0.23602   0.70171   0.00000  Uiso   1.00
H3460  H     0.57158   0.23848   0.69242   0.00000  Uiso   1.00
C3461  C     0.72298   0.09326   0.70948   0.00000  Uiso   1.00
C3462  C     0.72483   0.05829   0.53017   0.00000  Uiso   1.00
C3463  C     0.71602   0.07167   0.74471   0.00000  Uiso   1.00
C3464  C     0.70122   0.06396   0.74448   0.00000  Uiso   1.00
C3465  C     0.67918   0.09132   0.72131   0.00000  Uiso   1.00
C3466  C     0.69289   0.09279   0.71580   0.00000  Uiso   1.00
N3467  N     0.73609   0.09323   0.72318   0.00000  Uiso   1.00
N3468  N     0.73724   0.07162   0.51686   0.00000  Uiso   1.00
H3469  H     0.71932   0.10611   0.68042   0.00000  Uiso   1.00
H3470  H     0.72270   0.04243   0.55915   0.00000  Uiso   1.00
H3471  H     0.67349   0.11102   0.70171   0.00000  Uiso   1.00
H3472  H     0.69658   0.11348   0.69242   0.00000  Uiso   1.00
C3473  C     0.65202   0.21826   0.66552   0.00000  Uiso   1.00
C3474  C     0.65017   0.18329   0.59483   0.00000  Uiso   1.00
C3475  C     0.65898   0.19667   0.63029   0.00000  Uiso   1.00
C3476  C     0.67378   0.18896   0.63052   0.00000  Uiso   1.00
C3477  C     0.69582   0.21632   0.65369   0.00000  Uiso   1.00
C3478  C     0.68211   0.21779   0.65920   0.00000  Uiso   1.00
N3479  N     0.63891   0.21823   0.65182   0.00000  Uiso   1.00
N3480  N     0.63776   0.19662   0.60814   0.00000  Uiso   1.00
H3481  H     0.65568   0.23111   0.69458   0.00000  Uiso   1.00
H3482  H     0.65230   0.16743   0.56585   0.00000  Uiso   1.00
H3483  H     0.70151   0.23602   0.67329   0.00000  Uiso   1.00
H3484  H     0.67842   0.23848   0.68258   0.00000  Uiso   1.00
C3485  C     0.52702   0.09326   0.66552   0.00000  Uiso   1.00
C3486  C     0.52517   0.05829   0.59483   0.00000  Uiso   1.00
C3487  C     0.53398   0.07167   0.63029   0.00000  Uiso   1.00
C3488  C     0.54878   0.06396   0.63052   0.00000  Uiso   1.00
C3489  C     0.57082   0.09132   0.65369   0.00000  Uiso   1.00
C3490  C     0.55711   0.09279   0.65920   0.00000  Uiso   1.00
N3491  N     0.51391   0.09323   0.65182   0.00000  Uiso   1.00
N3492  N     0.51276   0.07162   0.60814   0.00000  Uiso   1.00
H3493  H     0.53068   0.10611   0.69458   0.00000  Uiso   1.00
H3494  H     0.52730   0.04243   0.56585   0.00000  Uiso   1.00
H3495  H     0.57651   0.11102   0.67329   0.00000  Uiso   1.00
H3496  H     0.55342   0.11348   0.68258   0.00000  Uiso   1.00
Fe3497 Fe    0.62500   0.23961   0.56250   0.00000  Uiso   1.00
Fe3498 Fe    0.50000   0.11461   0.56250   0.00000  Uiso   1.00
Fe3499 Fe    0.62500   0.01039   0.68750   0.00000  Uiso   1.00
Fe3500 Fe    0.50000   0.13539   0.68750   0.00000  Uiso   1.00
C3501  C     0.90202   0.03174   0.54052   0.00000  Uiso   1.00
C3502  C     0.90017   0.06671   0.71983   0.00000  Uiso   1.00
C3503  C     0.90898   0.05333   0.50529   0.00000  Uiso   1.00
C3504  C     0.92378   0.06104   0.50552   0.00000  Uiso   1.00
C3505  C     0.94582   0.03368   0.52869   0.00000  Uiso   1.00
C3506  C     0.93211   0.03221   0.53420   0.00000  Uiso   1.00
N3507  N     0.88891   0.03177   0.52682   0.00000  Uiso   1.00
N3508  N     0.88776   0.05338   0.73314   0.00000  Uiso   1.00
H3509  H     0.90568   0.01889   0.56958   0.00000  Uiso   1.00
H3510  H     0.90230   0.08257   0.69085   0.00000  Uiso   1.00
H3511  H     0.95151   0.01398   0.54829   0.00000  Uiso   1.00
H3512  H     0.92842   0.01152   0.55758   0.00000  Uiso   1.00
C3513  C     0.77702   0.15674   0.54052   0.00000  Uiso   1.00
C3514  C     0.77517   0.19171   0.71983   0.00000  Uiso   1.00
C3515  C     0.78398   0.17833   0.50529   0.00000  Uiso   1.00
C3516  C     0.79878   0.18604   0.50552   0.00000  Uiso   1.00
C3517  C     0.82082   0.15868   0.52869   0.00000  Uiso   1.00
C3518  C     0.80711   0.15721   0.53420   0.00000  Uiso   1.00
N3519  N     0.76391   0.15677   0.52682   0.00000  Uiso   1.00
N3520  N     0.76276   0.17838   0.73314   0.00000  Uiso   1.00
H3521  H     0.78068   0.14389   0.56958   0.00000  Uiso   1.00
H3522  H     0.77730   0.20757   0.69085   0.00000  Uiso   1.00
H3523  H     0.82651   0.13898   0.54829   0.00000  Uiso   1.00
H3524  H     0.80342   0.13652   0.55758   0.00000  Uiso   1.00
C3525  C     0.84798   0.03174   0.58448   0.00000  Uiso   1.00
C3526  C     0.84983   0.06671   0.65517   0.00000  Uiso   1.00
C3527  C     0.84102   0.05333   0.61971   0.00000  Uiso   1.00
C3528  C     0.82622   0.06104   0.61948   0.00000  Uiso   1.00
C3529  C     0.80418   0.03368   0.59631   0.00000  Uiso   1.00
C3530  C     0.81789   0.03221   0.59080   0.00000  Uiso   1.00
N3531  N     0.86109   0.03177   0.59818   0.00000  Uiso   1.00
N3532  N     0.86224   0.05338   0.64186   0.00000  Uiso   1.00
H3533  H     0.84432   0.01889   0.55542   0.00000  Uiso   1.00
H3534  H     0.84770   0.08257   0.68415   0.00000  Uiso   1.00
H3535  H     0.79849   0.01398   0.57671   0.00000  Uiso   1.00
H3536  H     0.82158   0.01152   0.56742   0.00000  Uiso   1.00
C3537  C     0.97298   0.15674   0.58448   0.00000  Uiso   1.00
C3538  C     0.97483   0.19171   0.65517   0.00000  Uiso   1.00
C3539  C     0.96602   0.17833   0.61971   0.00000  Uiso   1.00
C3540  C     0.95122   0.18604   0.61948   0.00000  Uiso   1.00
C3541  C     0.92918   0.15868   0.59631   0.00000  Uiso   1.00
C3542  C     0.94289   0.15721   0.59080   0.00000  Uiso   1.00
N3543  N     0.98609   0.15677   0.59818   0.00000  Uiso   1.00
N3544  N     0.98724   0.17838   0.64186   0.00000  Uiso   1.00
H3545  H     0.96932   0.14389   0.55542   0.00000  Uiso   1.00
H3546  H     0.97270   0.20757   0.68415   0.00000  Uiso   1.00
H3547  H     0.92349   0.13898   0.57671   0.00000  Uiso   1.00
H3548  H     0.94658   0.13652   0.56742   0.00000  Uiso   1.00
C3549  C     0.84798   0.21826   0.70948   0.00000  Uiso   1.00
C3550  C     0.84983   0.18329   0.53017   0.00000  Uiso   1.00
C3551  C     0.84102   0.19667   0.74471   0.00000  Uiso   1.00
C3552  C     0.82622   0.18896   0.74448   0.00000  Uiso   1.00
C3553  C     0.80418   0.21632   0.72131   0.00000  Uiso   1.00
C3554  C     0.81789   0.21779   0.71580   0.00000  Uiso   1.00
N3555  N     0.86109   0.21823   0.72318   0.00000  Uiso   1.00
N3556  N     0.86224   0.19662   0.51686   0.00000  Uiso   1.00
H3557  H     0.84432   0.23111   0.68042   0.00000  Uiso   1.00
H3558  H     0.84770   0.16743   0.55915   0.00000  Uiso   1.00
H3559  H     0.79849   0.23602   0.70171   0.00000  Uiso   1.00
H3560  H     0.82158   0.23848   0.69242   0.00000  Uiso   1.00
C3561  C     0.97298   0.09326   0.70948   0.00000  Uiso   1.00
C3562  C     0.97483   0.05829   0.53017   0.00000  Uiso   1.00
C3563  C     0.96602   0.07167   0.74471   0.00000  Uiso   1.00
C3564  C     0.95122   0.06396   0.74448   0.00000  Uiso   1.00
C3565  C     0.92918   0.09132   0.72131   0.00000  Uiso   1.00
C3566  C     0.94289   0.09279   0.71580   0.00000  Uiso   1.00
N3567  N     0.98609   0.09323   0.72318   0.00000  Uiso   1.00
N3568  N     0.98724   0.07162   0.51686   0.00000  Uiso   1.00
H3569  H     0.96932   0.10611   0.68042   0.00000  Uiso   1.00
H3570  H     0.97270   0.04243   0.55915   0.00000  Uiso   1.00
H3571  H     0.92349   0.11102   0.70171   0.00000  Uiso   1.00
H3572  H     0.94658   0.11348   0.69242   0.00000  Uiso   1.00
C3573  C     0.90202   0.21826   0.66552   0.00000  Uiso   1.00
C3574  C     0.90017   0.18329   0.59483   0.00000  Uiso   1.00
C3575  C     0.90898   0.19667   0.63029   0.00000  Uiso   1.00
C3576  C     0.92378   0.18896   0.63052   0.00000  Uiso   1.00
C3577  C     0.94582   0.21632   0.65369   0.00000  Uiso   1.00
C3578  C     0.93211   0.21779   0.65920   0.00000  Uiso   1.00
N3579  N     0.88891   0.21823   0.65182   0.00000  Uiso   1.00
N3580  N     0.88776   0.19662   0.60814   0.00000  Uiso   1.00
H3581  H     0.90568   0.23111   0.69458   0.00000  Uiso   1.00
H3582  H     0.90230   0.16743   0.56585   0.00000  Uiso   1.00
H3583  H     0.95151   0.23602   0.67329   0.00000  Uiso   1.00
H3584  H     0.92842   0.23848   0.68258   0.00000  Uiso   1.00
C3585  C     0.77702   0.09326   0.66552   0.00000  Uiso   1.00
C3586  C     0.77517   0.05829   0.59483   0.00000  Uiso   1.00
C3587  C     0.78398   0.07167   0.63029   0.00000  Uiso   1.00
C3588  C     0.79878   0.06396   0.63052   0.00000  Uiso   1.00
C3589  C     0.82082   0.09132   0.65369   0.00000  Uiso   1.00
C3590  C     0.80711   0.09279   0.65920   0.00000  Uiso   1.00
N3591  N     0.76391   0.09323   0.65182   0.00000  Uiso   1.00
N3592  N     0.76276   0.07162   0.60814   0.00000  Uiso   1.00
H3593  H     0.78068   0.10611   0.69458   0.00000  Uiso   1.00
H3594  H     0.77730   0.04243   0.56585   0.00000  Uiso   1.00
H3595  H     0.82651   0.11102   0.67329   0.00000  Uiso   1.00
H3596  H     0.80342   0.11348   0.68258   0.00000  Uiso   1.00
Fe3597 Fe    0.87500   0.23961   0.56250   0.00000  Uiso   1.00
Fe3598 Fe    0.75000   0.11461   0.56250   0.00000  Uiso   1.00
Fe3599 Fe    0.87500   0.01039   0.68750   0.00000  Uiso   1.00
Fe3600 Fe    0.75000   0.13539   0.68750   0.00000  Uiso   1.00
C3601  C     0.15202   0.28174   0.54052   0.00000  Uiso   1.00
C3602  C     0.15017   0.31671   0.71983   0.00000  Uiso   1.00
C3603  C     0.15898   0.30333   0.50529   0.00000  Uiso   1.00
C3604  C     0.17378   0.31104   0.50552   0.00000  Uiso   1.00
C3605  C     0.19582   0.28368   0.52869   0.00000  Uiso   1.00
C3606  C     0.18211   0.28221   0.53420   0.00000  Uiso   1.00
N3607  N     0.13891   0.28177   0.52682   0.00000  Uiso   1.00
N3608  N     0.13776   0.30338   0.73314   0.00000  Uiso   1.00
H3609  H     0.15568   0.26889   0.56958   0.00000  Uiso   1.00
H3610  H     0.15230   0.33257   0.69085   0.00000  Uiso   1.00
H3611  H     0.20151   0.26398   0.54829   0.00000  Uiso   1.00
H3612  H     0.17842   0.26152   0.55758   0.00000  Uiso   1.00
C3613  C     0.02702   0.40674   0.54052   0.00000  Uiso   1.00
C3614  C     0.02517   0.44171   0.71983   0.00000  Uiso   1.00
C3615  C     0.03398   0.42833   0.50529   0.00000  Uiso   1.00
C3616  C     0.04878   0.43604   0.50552   0.00000  Uiso   1.00
C3617  C     0.07082   0.40868   0.52869   0.00000  Uiso   1.00
C3618  C     0.05711   0.40721   0.53420   0.00000  Uiso   1.00
N3619  N     0.01391   0.40677   0.52682   0.00000  Uiso   1.00
N3620  N     0.01276   0.42838   0.73314   0.00000  Uiso   1.00
H3621  H     0.03068   0.39389   0.56958   0.00000  Uiso   1.00
H3622  H     0.02730   0.45757   0.69085   0.00000  Uiso   1.00
H3623  H     0.07651   0.38898   0.54829   0.00000  Uiso   1.00
H3624  H     0.05342   0.38652   0.55758   0.00000  Uiso   1.00
C3625  C     0.09798   0.28174   0.58448   0.00000  Uiso   1.00
C3626  C     0.09983   0.31671   0.65517   0.00000  Uiso   1.00
C3627  C     0.09102   0.30333   0.61971   0.00000  Uiso   1.00
C3628  C     0.07622   0.31104   0.61948   0.00000  Uiso   1.00
C3629  C     0.05418   0.28368   0.59631   0.00000  Uiso   1.00
C3630  C     0.06789   0.28221   0.59080   0.00000  Uiso   1.00
N3631  N     0.11109   0.28177   0.59818   0.00000  Uiso   1.00
N3632  N     0.11224   0.30338   0.64186   0.00000  Uiso   1.00
H3633  H     0.09432   0.26889   0.55542   0.00000  Uiso   1.00
H3634  H     0.09770   0.33257   0.68415   0.00000  Uiso   1.00
H3635  H     0.04849   0.26398   0.57671   0.00000  Uiso   1.00
H3636  H     0.07158   0.26152   0.56742   0.00000  Uiso   1.00
C3637  C     0.22298   0.40674   0.58448   0.00000  Uiso   1.00
C3638  C     0.22483   0.44171   0.65517   0.00000  Uiso   1.00
C3639  C     0.21602   0.42833   0.61971   0.00000  Uiso   1.00
C3640  C     0.20122   0.43604   0.61948   0.00000  Uiso   1.00
C3641  C     0.17918   0.40868   0.59631   0.00000  Uiso   1.00
C3642  C     0.19289   0.40721   0.59080   0.00000  Uiso   1.00
N3643  N     0.23609   0.40677   0.59818   0.00000  Uiso   1.00
N3644  N     0.23724   0.42838   0.64186   0.00000  Uiso   1.00
H3645  H     0.21932   0.39389   0.55542   0.00000  Uiso   1.00
H3646  H     0.22270   0.45757   0.68415   0.00000  Uiso   1.00
H3647  H     0.17349   0.38898   0.57671   0.00000  Uiso   1.00
H3648  H     0.19658   0.38652   0.56742   0.00000  Uiso   1.00
C3649  C     0.09798   0.46826   0.70948   0.00000  Uiso   1.00
C3650  C     0.09983   0.43329   0.53017   0.00000  Uiso   1.00
C3651  C     0.09102   0.44667   0.74471   0.00000  Uiso   1.00
C3652  C     0.07622   0.43896   0.74448   0.00000  Uiso   1.00
C3653  C     0.05418   0.46632   0.72131   0.00000  Uiso   1.00
C3654  C     0.06789   0.46779   0.71580   0.00000  Uiso   1.00
N3655  N     0.11109   0.46823   0.72318   0.00000  Uiso   1.00
N3656  N     0.11224   0.44662   0.51686   0.00000  Uiso   1.00
H3657  H     0.09432   0.48111   0.68042   0.00000  Uiso   1.00
H3658  H     0.09770   0.41743   0.55915   0.00000  Uiso   1.00
H3659  H     0.04849   0.48602   0.70171   0.00000  Uiso   1.00
H3660  H     0.07158   0.48848   0.69242   0.00000  Uiso   1.00
C3661  C     0.22298   0.34326   0.70948   0.00000  Uiso   1.00
C3662  C     0.22483   0.30829   0.53017   0.00000  Uiso   1.00
C3663  C     0.21602   0.32167   0.74471   0.00000  Uiso   1.00
C3664  C     0.20122   0.31396   0.74448   0.00000  Uiso   1.00
C3665  C     0.17918   0.34132   0.72131   0.00000  Uiso   1.00
C3666  C     0.19289   0.34279   0.71580   0.00000  Uiso   1.00
N3667  N     0.23609   0.34323   0.72318   0.00000  Uiso   1.00
N3668  N     0.23724   0.32162   0.51686   0.00000  Uiso   1.00
H3669  H     0.21932   0.35611   0.68042   0.00000  Uiso   1.00
H3670  H     0.22270   0.29243   0.55915   0.00000  Uiso   1.00
H3671  H     0.17349   0.36102   0.70171   0.00000  Uiso   1.00
H3672  H     0.19658   0.36348   0.69242   0.00000  Uiso   1.00
C3673  C     0.15202   0.46826   0.66552   0.00000  Uiso   1.00
C3674  C     0.15017   0.43329   0.59483   0.00000  Uiso   1.00
C3675  C     0.15898   0.44667   0.63029   0.00000  Uiso   1.00
C3676  C     0.17378   0.43896   0.63052   0.00000  Uiso   1.00
C3677  C     0.19582   0.46632   0.65369   0.00000  Uiso   1.00
C3678  C     0.18211   0.46779   0.65920   0.00000  Uiso   1.00
N3679  N     0.13891   0.46823   0.65182   0.00000  Uiso   1.00
N3680  N     0.13776   0.44662   0.60814   0.00000  Uiso   1.00
H3681  H     0.15568   0.48111   0.69458   0.00000  Uiso   1.00
H3682  H     0.15230   0.41743   0.56585   0.00000  Uiso   1.00
H3683  H     0.20151   0.48602   0.67329   0.00000  Uiso   1.00
H3684  H     0.17842   0.48848   0.68258   0.00000  Uiso   1.00
C3685  C     0.02702   0.34326   0.66552   0.00000  Uiso   1.00
C3686  C     0.02517   0.30829   0.59483   0.00000  Uiso   1.00
C3687  C     0.03398   0.32167   0.63029   0.00000  Uiso   1.00
C3688  C     0.04878   0.31396   0.63052   0.00000  Uiso   1.00
C3689  C     0.07082   0.34132   0.65369   0.00000  Uiso   1.00
C3690  C     0.05711   0.34279   0.65920   0.00000  Uiso   1.00
N3691  N     0.01391   0.34323   0.65182   0.00000  Uiso   1.00
N3692  N     0.01276   0.32162   0.60814   0.00000  Uiso   1.00
H3693  H     0.03068   0.35611   0.69458   0.00000  Uiso   1.00
H3694  H     0.02730   0.29243   0.56585   0.00000  Uiso   1.00
H3695  H     0.07651   0.36102   0.67329   0.00000  Uiso   1.00
H3696  H     0.05342   0.36348   0.68258   0.00000  Uiso   1.00
Fe3697 Fe    0.12500   0.48961   0.56250   0.00000  Uiso   1.00
Fe3698 Fe    0.00000   0.36461   0.56250   0.00000  Uiso   1.00
Fe3699 Fe    0.12500   0.26039   0.68750   0.00000  Uiso   1.00
Fe3700 Fe   -0.00000   0.38539   0.68750   0.00000  Uiso   1.00
C3701  C     0.40202   0.28174   0.54052   0.00000  Uiso   1.00
C3702  C     0.40017   0.31671   0.71983   0.00000  Uiso   1.00
C3703  C     0.40898   0.30333   0.50529   0.00000  Uiso   1.00
C3704  C     0.42378   0.31104   0.50552   0.00000  Uiso   1.00
C3705  C     0.44582   0.28368   0.52869   0.00000  Uiso   1.00
C3706  C     0.43211   0.28221   0.53420   0.00000  Uiso   1.00
N3707  N     0.38891   0.28177   0.52682   0.00000  Uiso   1.00
N3708  N     0.38776   0.30338   0.73314   0.00000  Uiso   1.00
H3709  H     0.40568   0.26889   0.56958   0.00000  Uiso   1.00
H3710  H     0.40230   0.33257   0.69085   0.00000  Uiso   1.00
H3711  H     0.45151   0.26398   0.54829   0.00000  Uiso   1.00
H3712  H     0.42842   0.26152   0.55758   0.00000  Uiso   1.00
C3713  C     0.27702   0.40674   0.54052   0.00000  Uiso   1.00
C3714  C     0.27517   0.44171   0.71983   0.00000  Uiso   1.00
C3715  C     0.28398   0.42833   0.50529   0.00000  Uiso   1.00
C3716  C     0.29878   0.43604   0.50552   0.00000  Uiso   1.00
C3717  C     0.32082   0.40868   0.52869   0.00000  Uiso   1.00
C3718  C     0.30711   0.40721   0.53420   0.00000  Uiso   1.00
N3719  N     0.26391   0.40677   0.52682   0.00000  Uiso   1.00
N3720  N     0.26276   0.42838   0.73314   0.00000  Uiso   1.00
H3721  H     0.28068   0.39389   0.56958   0.00000  Uiso   1.00
H3722  H     0.27730   0.45757   0.69085   0.00000  Uiso   1.00
H3723  H     0.32651   0.38898   0.54829   0.00000  Uiso   1.00
H3724  H     0.30342   0.38652   0.55758   0.00000  Uiso   1.00
C3725  C     0.34798   0.28174   0.58448   0.00000  Uiso   1.00
C3726  C     0.34983   0.31671   0.65517   0.00000  Uiso   1.00
C3727  C     0.34102   0.30333   0.61971   0.00000  Uiso   1.00
C3728  C     0.32622   0.31104   0.61948   0.00000  Uiso   1.00
C3729  C     0.30418   0.28368   0.59631   0.00000  Uiso   1.00
C3730  C     0.31789   0.28221   0.59080   0.00000  Uiso   1.00
N3731  N     0.36109   0.28177   0.59818   0.00000  Uiso   1.00
N3732  N     0.36224   0.30338   0.64186   0.00000  Uiso   1.00
H3733  H     0.34432   0.26889   0.55542   0.00000  Uiso   1.00
H3734  H     0.34770   0.33257   0.68415   0.00000  Uiso   1.00
H3735  H     0.29849   0.26398   0.57671   0.00000  Uiso   1.00
H3736  H     0.32158   0.26152   0.56742   0.00000  Uiso   1.00
C3737  C     0.47298   0.40674   0.58448   0.00000  Uiso   1.00
C3738  C     0.47483   0.44171   0.65517   0.00000  Uiso   1.00
C3739  C     0.46602   0.42833   0.61971   0.00000  Uiso   1.00
C3740  C     0.45122   0.43604   0.61948   0.00000  Uiso   1.00
C3741  C     0.42918   0.40868   0.59631   0.00000  Uiso   1.00
C3742  C     0.44289   0.40721   0.59080   0.00000  Uiso   1.00
N3743  N     0.48609   0.40677   0.59818   0.00000  Uiso   1.00
N3744  N     0.48724   0.42838   0.64186   0.00000  Uiso   1.00
H3745  H     0.46932   0.39389   0.55542   0.00000  Uiso   1.00
H3746  H     0.47270   0.45757   0.68415   0.00000  Uiso   1.00
H3747  H     0.42349   0.38898   0.57671   0.00000  Uiso   1.00
H3748  H     0.44658   0.38652   0.56742   0.00000  Uiso   1.00
C3749  C     0.34798   0.46826   0.70948   0.00000  Uiso   1.00
C3750  C     0.34983   0.43329   0.53017   0.00000  Uiso   1.00
C3751  C     0.34102   0.44667   0.74471   0.00000  Uiso   1.00
C3752  C     0.32622   0.43896   0.74448   0.00000  Uiso   1.00
C3753  C     0.30418   0.46632   0.72131   0.00000  Uiso   1.00
C3754  C     0.31789   0.46779   0.71580   0.00000  Uiso   1.00
N3755  N     0.36109   0.46823   0.72318   0.00000  Uiso   1.00
N3756  N     0.36224   0.44662   0.51686   0.00000  Uiso   1.00
H3757  H     0.34432   0.48111   0.68042   0.00000  Uiso   1.00
H3758  H     0.34770   0.41743   0.55915   0.00000  Uiso   1.00
H3759  H     0.29849   0.48602   0.70171   0.00000  Uiso   1.00
H3760  H     0.32158   0.48848   0.69242   0.00000  Uiso   1.00
C3761  C     0.47298   0.34326   0.70948   0.00000  Uiso   1.00
C3762  C     0.47483   0.30829   0.53017   0.00000  Uiso   1.00
C3763  C     0.46602   0.32167   0.74471   0.00000  Uiso   1.00
C3764  C     0.45122   0.31396   0.74448   0.00000  Uiso   1.00
C3765  C     0.42918   0.34132   0.72131   0.00000  Uiso   1.00
C3766  C     0.44289   0.34279   0.71580   0.00000  Uiso   1.00
N3767  N     0.48609   0.34323   0.72318   0.00000  Uiso   1.00
N3768  N     0.48724   0.32162   0.51686   0.00000  Uiso   1.00
H3769  H     0.46932   0.35611   0.68042   0.00000  Uiso   1.00
H3770  H     0.47270   0.29243   0.55915   0.00000  Uiso   1.00
H3771  H     0.42349   0.36102   0.70171   0.00000  Uiso   1.00
H3772  H     0.44658   0.36348   0.69242   0.00000  Uiso   1.00
C3773  C     0.40202   0.46826   0.66552   0.00000  Uiso   1.00
C3774  C     0.40017   0.43329   0.59483   0.00000  Uiso   1.00
C3775  C     0.40898   0.44667   0.63029   0.00000  Uiso   1.00
C3776  C     0.42378   0.43896   0.63052   0.00000  Uiso   1.00
C3777  C     0.44582   0.46632   0.65369   0.00000  Uiso   1.00
C3778  C     0.43211   0.46779   0.65920   0.00000  Uiso   1.00
N3779  N     0.38891   0.46823   0.65182   0.00000  Uiso   1.00
N3780  N     0.38776   0.44662   0.60814   0.00000  Uiso   1.00
H3781  H     0.40568   0.48111   0.69458   0.00000  Uiso   1.00
H3782  H     0.40230   0.41743   0.56585   0.00000  Uiso   1.00
H3783  H     0.45151   0.48602   0.67329   0.00000  Uiso   1.00
H3784  H     0.42842   0.48848   0.68258   0.00000  Uiso   1.00
C3785  C     0.27702   0.34326   0.66552   0.00000  Uiso   1.00
C3786  C     0.27517   0.30829   0.59483   0.00000  Uiso   1.00
C3787  C     0.28398   0.32167   0.63029   0.00000  Uiso   1.00
C3788  C     0.29878   0.31396   0.63052   0.00000  Uiso   1.00
C3789  C     0.32082   0.34132   0.65369   0.00000  Uiso   1.00
C3790  C     0.30711   0.34279   0.65920   0.00000  Uiso   1.00
N3791  N     0.26391   0.34323   0.65182   0.00000  Uiso   1.00
N3792  N     0.26276   0.32162   0.60814   0.00000  Uiso   1.00
H3793  H     0.28068   0.35611   0.69458   0.00000  Uiso   1.00
H3794  H     0.27730   0.29243   0.56585   0.00000  Uiso   1.00
H3795  H     0.32651   0.36102   0.67329   0.00000  Uiso   1.00
H3796  H     0.30342   0.36348   0.68258   0.00000  Uiso   1.00
Fe3797 Fe    0.37500   0.48961   0.56250   0.00000  Uiso   1.00
Fe3798 Fe    0.25000   0.36461   0.56250   0.00000  Uiso   1.00
Fe3799 Fe    0.37500   0.26039   0.68750   0.00000  Uiso   1.00
Fe3800 Fe    0.25000   0.38539   0.68750   0.00000  Uiso   1.00
C3801  C     0.65202   0.28174   0.54052   0.00000  Uiso   1.00
C3802  C     0.65017   0.31671   0.71983   0.00000  Uiso   1.00
C3803  C     0.65898   0.30333   0.50529   0.00000  Uiso   1.00
C3804  C     0.67378   0.31104   0.50552   0.00000  Uiso   1.00
C3805  C     0.69582   0.28368   0.52869   0.00000  Uiso   1.00
C3806  C     0.68211   0.28221   0.53420   0.00000  Uiso   1.00
N3807  N     0.63891   0.28177   0.52682   0.00000  Uiso   1.00
N3808  N     0.63776   0.30338   0.73314   0.00000  Uiso   1.00
H3809  H     0.65568   0.26889   0.56958   0.00000  Uiso   1.00
H3810  H     0.65230   0.33257   0.69085   0.00000  Uiso   1.00
H3811  H     0.70151   0.26398   0.54829   0.00000  Uiso   1.00
H3812  H     0.67842   0.26152   0.55758   0.00000  Uiso   1.00
C3813  C     0.52702   0.40674   0.54052   0.00000  Uiso   1.00
C3814  C     0.52517   0.44171   0.71983   0.00000  Uiso   1.00
C3815  C     0.53398   0.42833   0.50529   0.00000  Uiso   1.00
C3816  C     0.54878   0.43604   0.50552   0.00000  Uiso   1.00
C3817  C     0.57082   0.40868   0.52869   0.00000  Uiso   1.00
C3818  C     0.55711   0.40721   0.53420   0.00000  Uiso   1.00
N3819  N     0.51391   0.40677   0.52682   0.00000  Uiso   1.00
N3820  N     0.51276   0.42838   0.73314   0.00000  Uiso   1.00
H3821  H     0.53068   0.39389   0.56958   0.00000  Uiso   1.00
H3822  H     0.52730   0.45757   0.69085   0.00000  Uiso   1.00
H3823  H     0.57651   0.38898   0.54829   0.00000  Uiso   1.00
H3824  H     0.55342   0.38652   0.55758   0.00000  Uiso   1.00
C3825  C     0.59798   0.28174   0.58448   0.00000  Uiso   1.00
C3826  C     0.59983   0.31671   0.65517   0.00000  Uiso   1.00
C3827  C     0.59102   0.30333   0.61971   0.00000  Uiso   1.00
C3828  C     0.57622   0.31104   0.61948   0.00000  Uiso   1.00
C3829  C     0.55418   0.28368   0.59631   0.00000  Uiso   1.00
C3830  C     0.56789   0.28221   0.59080   0.00000  Uiso   1.00
N3831  N     0.61109   0.28177   0.59818   0.00000  Uiso   1.00
N3832  N     0.61224   0.30338   0.64186   0.00000  Uiso   1.00
H3833  H     0.59432   0.26889   0.55542   0.00000  Uiso   1.00
H3834  H     0.59770   0.33257   0.68415   0.00000  Uiso   1.00
H3835  H     0.54849   0.26398   0.57671   0.00000  Uiso   1.00
H3836  H     0.57158   0.26152   0.56742   0.00000  Uiso   1.00
C3837  C     0.72298   0.40674   0.58448   0.00000  Uiso   1.00
C3838  C     0.72483   0.44171   0.65517   0.00000  Uiso   1.00
C3839  C     0.71602   0.42833   0.61971   0.00000  Uiso   1.00
C3840  C     0.70122   0.43604   0.61948   0.00000  Uiso   1.00
C3841  C     0.67918   0.40868   0.59631   0.00000  Uiso   1.00
C3842  C     0.69289   0.40721   0.59080   0.00000  Uiso   1.00
N3843  N     0.73609   0.40677   0.59818   0.00000  Uiso   1.00
N3844  N     0.73724   0.42838   0.64186   0.00000  Uiso   1.00
H3845  H     0.71932   0.39389   0.55542   0.00000  Uiso   1.00
H3846  H     0.72270   0.45757   0.68415   0.00000  Uiso   1.00
H3847  H     0.67349   0.38898   0.57671   0.00000  Uiso   1.00
H3848  H     0.69658   0.38652   0.56742   0.00000  Uiso   1.00
C3849  C     0.59798   0.46826   0.70948   0.00000  Uiso   1.00
C3850  C     0.59983   0.43329   0.53017   0.00000  Uiso   1.00
C3851  C     0.59102   0.44667   0.74471   0.00000  Uiso   1.00
C3852  C     0.57622   0.43896   0.74448   0.00000  Uiso   1.00
C3853  C     0.55418   0.46632   0.72131   0.00000  Uiso   1.00
C3854  C     0.56789   0.46779   0.71580   0.00000  Uiso   1.00
N3855  N     0.61109   0.46823   0.72318   0.00000  Uiso   1.00
N3856  N     0.61224   0.44662   0.51686   0.00000  Uiso   1.00
H3857  H     0.59432   0.48111   0.68042   0.00000  Uiso   1.00
H3858  H     0.59770   0.41743   0.55915   0.00000  Uiso   1.00
H3859  H     0.54849   0.48602   0.70171   0.00000  Uiso   1.00
H3860  H     0.57158   0.48848   0.69242   0.00000  Uiso   1.00
C3861  C     0.72298   0.34326   0.70948   0.00000  Uiso   1.00
C3862  C     0.72483   0.30829   0.53017   0.00000  Uiso   1.00
C3863  C     0.71602   0.32167   0.74471   0.00000  Uiso   1.00
C3864  C     0.70122   0.31396   0.74448   0.00000  Uiso   1.00
C3865  C     0.67918   0.34132   0.72131   0.00000  Uiso   1.00
C3866  C     0.69289   0.34279   0.71580   0.00000  Uiso   1.00
N3867  N     0.73609   0.34323   0.72318   0.00000  Uiso   1.00
N3868  N     0.73724   0.32162   0.51686   0.00000  Uiso   1.00
H3869  H     0.71932   0.35611   0.68042   0.00000  Uiso   1.00
H3870  H     0.72270   0.29243   0.55915   0.00000  Uiso   1.00
H3871  H     0.67349   0.36102   0.70171   0.00000  Uiso   1.00
H3872  H     0.69658   0.36348   0.69242   0.00000  Uiso   1.00
C3873  C     0.65202   0.46826   0.66552   0.00000  Uiso   1.00
C3874  C     0.65017   0.43329   0.59483   0.00000  Uiso   1.00
C3875  C     0.65898   0.44667   0.63029   0.00000  Uiso   1.00
C3876  C     0.67378   0.43896   0.63052   0.00000  Uiso   1.00
C3877  C     0.69582   0.46632   0.65369   0.00000  Uiso   1.00
C3878  C     0.68211   0.46779   0.65920   0.00000  Uiso   1.00
N3879  N     0.63891   0.46823   0.65182   0.00000  Uiso   1.00
N3880  N     0.63776   0.44662   0.60814   0.00000  Uiso   1.00
H3881  H     0.65568   0.48111   0.69458   0.00000  Uiso   1.00
H3882  H     0.65230   0.41743   0.56585   0.00000  Uiso   1.00
H3883  H     0.70151   0.48602   0.67329   0.00000  Uiso   1.00
H3884  H     0.67842   0.48848   0.68258   0.00000  Uiso   1.00
C3885  C     0.52702   0.34326   0.66552   0.00000  Uiso   1.00
C3886  C     0.52517   0.30829   0.59483   0.00000  Uiso   1.00
C3887  C     0.53398   0.32167   0.63029   0.00000  Uiso   1.00
C3888  C     0.54878   0.31396   0.63052   0.00000  Uiso   1.00
C3889  C     0.57082   0.34132   0.65369   0.00000  Uiso   1.00
C3890  C     0.55711   0.34279   0.65920   0.00000  Uiso   1.00
N3891  N     0.51391   0.34323   0.65182   0.00000  Uiso   1.00
N3892  N     0.51276   0.32162   0.60814   0.00000  Uiso   1.00
H3893  H     0.53068   0.35611   0.69458   0.00000  Uiso   1.00
H3894  H     0.52730   0.29243   0.56585   0.00000  Uiso   1.00
H3895  H     0.57651   0.36102   0.67329   0.00000  Uiso   1.00
H3896  H     0.55342   0.36348   0.68258   0.00000  Uiso   1.00
Fe3897 Fe    0.62500   0.48961   0.56250   0.00000  Uiso   1.00
Fe3898 Fe    0.50000   0.36461   0.56250   0.00000  Uiso   1.00
Fe3899 Fe    0.62500   0.26039   0.68750   0.00000  Uiso   1.00
Fe3900 Fe    0.50000   0.38539   0.68750   0.00000  Uiso   1.00
C3901  C     0.90202   0.28174   0.54052   0.00000  Uiso   1.00
C3902  C     0.90017   0.31671   0.71983   0.00000  Uiso   1.00
C3903  C     0.90898   0.30333   0.50529   0.00000  Uiso   1.00
C3904  C     0.92378   0.31104   0.50552   0.00000  Uiso   1.00
C3905  C     0.94582   0.28368   0.52869   0.00000  Uiso   1.00
C3906  C     0.93211   0.28221   0.53420   0.00000  Uiso   1.00
N3907  N     0.88891   0.28177   0.52682   0.00000  Uiso   1.00
N3908  N     0.88776   0.30338   0.73314   0.00000  Uiso   1.00
H3909  H     0.90568   0.26889   0.56958   0.00000  Uiso   1.00
H3910  H     0.90230   0.33257   0.69085   0.00000  Uiso   1.00
H3911  H     0.95151   0.26398   0.54829   0.00000  Uiso   1.00
H3912  H     0.92842   0.26152   0.55758   0.00000  Uiso   1.00
C3913  C     0.77702   0.40674   0.54052   0.00000  Uiso   1.00
C3914  C     0.77517   0.44171   0.71983   0.00000  Uiso   1.00
C3915  C     0.78398   0.42833   0.50529   0.00000  Uiso   1.00
C3916  C     0.79878   0.43604   0.50552   0.00000  Uiso   1.00
C3917  C     0.82082   0.40868   0.52869   0.00000  Uiso   1.00
C3918  C     0.80711   0.40721   0.53420   0.00000  Uiso   1.00
N3919  N     0.76391   0.40677   0.52682   0.00000  Uiso   1.00
N3920  N     0.76276   0.42838   0.73314   0.00000  Uiso   1.00
H3921  H     0.78068   0.39389   0.56958   0.00000  Uiso   1.00
H3922  H     0.77730   0.45757   0.69085   0.00000  Uiso   1.00
H3923  H     0.82651   0.38898   0.54829   0.00000  Uiso   1.00
H3924  H     0.80342   0.38652   0.55758   0.00000  Uiso   1.00
C3925  C     0.84798   0.28174   0.58448   0.00000  Uiso   1.00
C3926  C     0.84983   0.31671   0.65517   0.00000  Uiso   1.00
C3927  C     0.84102   0.30333   0.61971   0.00000  Uiso   1.00
C3928  C     0.82622   0.31104   0.61948   0.00000  Uiso   1.00
C3929  C     0.80418   0.28368   0.59631   0.00000  Uiso   1.00
C3930  C     0.81789   0.28221   0.59080   0.00000  Uiso   1.00
N3931  N     0.86109   0.28177   0.59818   0.00000  Uiso   1.00
N3932  N     0.86224   0.30338   0.64186   0.00000  Uiso   1.00
H3933  H     0.84432   0.26889   0.55542   0.00000  Uiso   1.00
H3934  H     0.84770   0.33257   0.68415   0.00000  Uiso   1.00
H3935  H     0.79849   0.26398   0.57671   0.00000  Uiso   1.00
H3936  H     0.82158   0.26152   0.56742   0.00000  Uiso   1.00
C3937  C     0.97298   0.40674   0.58448   0.00000  Uiso   1.00
C3938  C     0.97483   0.44171   0.65517   0.00000  Uiso   1.00
C3939  C     0.96602   0.42833   0.61971   0.00000  Uiso   1.00
C3940  C     0.95122   0.43604   0.61948   0.00000  Uiso   1.00
C3941  C     0.92918   0.40868   0.59631   0.00000  Uiso   1.00
C3942  C     0.94289   0.40721   0.59080   0.00000  Uiso   1.00
N3943  N     0.98609   0.40677   0.59818   0.00000  Uiso   1.00
N3944  N     0.98724   0.42838   0.64186   0.00000  Uiso   1.00
H3945  H     0.96932   0.39389   0.55542   0.00000  Uiso   1.00
H3946  H     0.97270   0.45757   0.68415   0.00000  Uiso   1.00
H3947  H     0.92349   0.38898   0.57671   0.00000  Uiso   1.00
H3948  H     0.94658   0.38652   0.56742   0.00000  Uiso   1.00
C3949  C     0.84798   0.46826   0.70948   0.00000  Uiso   1.00
C3950  C     0.84983   0.43329   0.53017   0.00000  Uiso   1.00
C3951  C     0.84102   0.44667   0.74471   0.00000  Uiso   1.00
C3952  C     0.82622   0.43896   0.74448   0.00000  Uiso   1.00
C3953  C     0.80418   0.46632   0.72131   0.00000  Uiso   1.00
C3954  C     0.81789   0.46779   0.71580   0.00000  Uiso   1.00
N3955  N     0.86109   0.46823   0.72318   0.00000  Uiso   1.00
N3956  N     0.86224   0.44662   0.51686   0.00000  Uiso   1.00
H3957  H     0.84432   0.48111   0.68042   0.00000  Uiso   1.00
H3958  H     0.84770   0.41743   0.55915   0.00000  Uiso   1.00
H3959  H     0.79849   0.48602   0.70171   0.00000  Uiso   1.00
H3960  H     0.82158   0.48848   0.69242   0.00000  Uiso   1.00
C3961  C     0.97298   0.34326   0.70948   0.00000  Uiso   1.00
C3962  C     0.97483   0.30829   0.53017   0.00000  Uiso   1.00
C3963  C     0.96602   0.32167   0.74471   0.00000  Uiso   1.00
C3964  C     0.95122   0.31396   0.74448   0.00000  Uiso   1.00
C3965  C     0.92918   0.34132   0.72131   0.00000  Uiso   1.00
C3966  C     0.94289   0.34279   0.71580   0.00000  Uiso   1.00
N3967  N     0.98609   0.34323   0.72318   0.00000  Uiso   1.00
N3968  N     0.98724   0.32162   0.51686   0.00000  Uiso   1.00
H3969  H     0.96932   0.35611   0.68042   0.00000  Uiso   1.00
H3970  H     0.97270   0.29243   0.55915   0.00000  Uiso   1.00
H3971  H     0.92349   0.36102   0.70171   0.00000  Uiso   1.00
H3972  H     0.94658   0.36348   0.69242   0.00000  Uiso   1.00
C3973  C     0.90202   0.46826   0.66552   0.00000  Uiso   1.00
C3974  C     0.90017   0.43329   0.59483   0.00000  Uiso   1.00
C3975  C     0.90898   0.44667   0.63029   0.00000  Uiso   1.00
C3976  C     0.92378   0.43896   0.63052   0.00000  Uiso   1.00
C3977  C     0.94582   0.46632   0.65369   0.00000  Uiso   1.00
C3978  C     0.93211   0.46779   0.65920   0.00000  Uiso   1.00
N3979  N     0.88891   0.46823   0.65182   0.00000  Uiso   1.00
N3980  N     0.88776   0.44662   0.60814   0.00000  Uiso   1.00
H3981  H     0.90568   0.48111   0.69458   0.00000  Uiso   1.00
H3982  H     0.90230   0.41743   0.56585   0.00000  Uiso   1.00
H3983  H     0.95151   0.48602   0.67329   0.00000  Uiso   1.00
H3984  H     0.92842   0.48848   0.68258   0.00000  Uiso   1.00
C3985  C     0.77702   0.34326   0.66552   0.00000  Uiso   1.00
C3986  C     0.77517   0.30829   0.59483   0.00000  Uiso   1.00
C3987  C     0.78398   0.32167   0.63029   0.00000  Uiso   1.00
C3988  C     0.79878   0.31396   0.63052   0.00000  Uiso   1.00
C3989  C     0.82082   0.34132   0.65369   0.00000  Uiso   1.00
C3990  C     0.80711   0.34279   0.65920   0.00000  Uiso   1.00
N3991  N     0.76391   0.34323   0.65182   0.00000  Uiso   1.00
N3992  N     0.76276   0.32162   0.60814   0.00000  Uiso   1.00
H3993  H     0.78068   0.35611   0.69458   0.00000  Uiso   1.00
H3994  H     0.77730   0.29243   0.56585   0.00000  Uiso   1.00
H3995  H     0.82651   0.36102   0.67329   0.00000  Uiso   1.00
H3996  H     0.80342   0.36348   0.68258   0.00000  Uiso   1.00
Fe3997 Fe    0.87500   0.48961   0.56250   0.00000  Uiso   1.00
Fe3998 Fe    0.75000   0.36461   0.56250   0.00000  Uiso   1.00
Fe3999 Fe    0.87500   0.26039   0.68750   0.00000  Uiso   1.00
Fe4000 Fe    0.75000   0.38539   0.68750   0.00000  Uiso   1.00
C4001  C     0.15202   0.53174   0.54052   0.00000  Uiso   1.00
C4002  C     0.15017   0.56671   0.71983   0.00000  Uiso   1.00
C4003  C     0.15898   0.55333   0.50529   0.00000  Uiso   1.00
C4004  C     0.17378   0.56104   0.50552   0.00000  Uiso   1.00
C4005  C     0.19582   0.53368   0.52869   0.00000  Uiso   1.00
C4006  C     0.18211   0.53221   0.53420   0.00000  Uiso   1.00
N4007  N     0.13891   0.53177   0.52682   0.00000  Uiso   1.00
N4008  N     0.13776   0.55338   0.73314   0.00000  Uiso   1.00
H4009  H     0.15568   0.51889   0.56958   0.00000  Uiso   1.00
H4010  H     0.15230   0.58257   0.69085   0.00000  Uiso   1.00
H4011  H     0.20151   0.51398   0.54829   0.00000  Uiso   1.00
H4012  H     0.17842   0.51152   0.55758   0.00000  Uiso   1.00
C4013  C     0.02702   0.65674   0.54052   0.00000  Uiso   1.00
C4014  C     0.02517   0.69171   0.71983   0.00000  Uiso   1.00
C4015  C     0.03398   0.67833   0.50529   0.00000  Uiso   1.00
C4016  C     0.04878   0.68604   0.50552   0.00000  Uiso   1.00
C4017  C     0.07082   0.65868   0.52869   0.00000  Uiso   1.00
C4018  C     0.05711   0.65721   0.53420   0.00000  Uiso   1.00
N4019  N     0.01391   0.65677   0.52682   0.00000  Uiso   1.00
N4020  N     0.01276   0.67838   0.73314   0.00000  Uiso   1.00
H4021  H     0.03068   0.64389   0.56958   0.00000  Uiso   1.00
H4022  H     0.02730   0.70757   0.69085   0.00000  Uiso   1.00
H4023  H     0.07651   0.63898   0.54829   0.00000  Uiso   1.00
H4024  H     0.05342   0.63652   0.55758   0.00000  Uiso   1.00
C4025  C     0.09798   0.53174   0.58448   0.00000  Uiso   1.00
C4026  C     0.09983   0.56671   0.65517   0.00000  Uiso   1.00
C4027  C     0.09102   0.55333   0.61971   0.00000  Uiso   1.00
C4028  C     0.07622   0.56104   0.61948   0.00000  Uiso   1.00
C4029  C     0.05418   0.53368   0.59631   0.00000  Uiso   1.00
C4030  C     0.06789   0.53221   0.59080   0.00000  Uiso   1.00
N4031  N     0.11109   0.53177   0.59818   0.00000  Uiso   1.00
N4032  N     0.11224   0.55338   0.64186   0.00000  Uiso   1.00
H4033  H     0.09432   0.51889   0.55542   0.00000  Uiso   1.00
H4034  H     0.09770   0.58257   0.68415   0.00000  Uiso   1.00
H4035  H     0.04849   0.51398   0.57671   0.00000  Uiso   1.00
H4036  H     0.07158   0.51152   0.56742   0.00000  Uiso   1.00
C4037  C     0.22298   0.65674   0.58448   0.00000  Uiso   1.00
C4038  C     0.22483   0.69171   0.65517   0.00000  Uiso   1.00
C4039  C     0.21602   0.67833   0.61971   0.00000  Uiso   1.00
C4040  C     0.20122   0.68604   0.61948   0.00000  Uiso   1.00
C4041  C     0.17918   0.65868   0.59631   0.00000  Uiso   1.00
C4042  C     0.19289   0.65721   0.59080   0.00000  Uiso   1.00
N4043  N     0.23609   0.65677   0.59818   0.00000  Uiso   1.00
N4044  N     0.23724   0.67838   0.64186   0.00000  Uiso   1.00
H4045  H     0.21932   0.64389   0.55542   0.00000  Uiso   1.00
H4046  H     0.22270   0.70757   0.68415   0.00000  Uiso   1.00
H4047  H     0.17349   0.63898   0.57671   0.00000  Uiso   1.00
H4048  H     0.19658   0.63652   0.56742   0.00000  Uiso   1.00
C4049  C     0.09798   0.71826   0.70948   0.00000  Uiso   1.00
C4050  C     0.09983   0.68329   0.53017   0.00000  Uiso   1.00
C4051  C     0.09102   0.69667   0.74471   0.00000  Uiso   1.00
C4052  C     0.07622   0.68896   0.74448   0.00000  Uiso   1.00
C4053  C     0.05418   0.71632   0.72131   0.00000  Uiso   1.00
C4054  C     0.06789   0.71779   0.71580   0.00000  Uiso   1.00
N4055  N     0.11109   0.71823   0.72318   0.00000  Uiso   1.00
N4056  N     0.11224   0.69662   0.51686   0.00000  Uiso   1.00
H4057  H     0.09432   0.73111   0.68042   0.00000  Uiso   1.00
H4058  H     0.09770   0.66743   0.55915   0.00000  Uiso   1.00
H4059  H     0.04849   0.73602   0.70171   0.00000  Uiso   1.00
H4060  H     0.07158   0.73848   0.69242   0.00000  Uiso   1.00
C4061  C     0.22298   0.59326   0.70948   0.00000  Uiso   1.00
C4062  C     0.22483   0.55829   0.53017   0.00000  Uiso   1.00
C4063  C     0.21602   0.57167   0.74471   0.00000  Uiso   1.00
C4064  C     0.20122   0.56396   0.74448   0.00000  Uiso   1.00
C4065  C     0.17918   0.59132   0.72131   0.00000  Uiso   1.00
C4066  C     0.19289   0.59279   0.71580   0.00000  Uiso   1.00
N4067  N     0.23609   0.59323   0.72318   0.00000  Uiso   1.00
N4068  N     0.23724   0.57162   0.51686   0.00000  Uiso   1.00
H4069  H     0.21932   0.60611   0.68042   0.00000  Uiso   1.00
H4070  H     0.22270   0.54243   0.55915   0.00000  Uiso   1.00
H4071  H     0.17349   0.61102   0.70171   0.00000  Uiso   1.00
H4072  H     0.19658   0.61348   0.69242   0.00000  Uiso   1.00
C4073  C     0.15202   0.71826   0.66552   0.00000  Uiso   1.00
C4074  C     0.15017   0.68329   0.59483   0.00000  Uiso   1.00
C4075  C     0.15898   0.69667   0.63029   0.00000  Uiso   1.00
C4076  C     0.17378   0.68896   0.63052   0.00000  Uiso   1.00
C4077  C     0.19582   0.71632   0.65369   0.00000  Uiso   1.00
C4078  C     0.18211   0.71779   0.65920   0.00000  Uiso   1.00
N4079  N     0.13891   0.71823   0.65182   0.00000  Uiso   1.00
N4080  N     0.13776   0.69662   0.60814   0.00000  Uiso   1.00
H4081  H     0.15568   0.73111   0.69458   0.00000  Uiso   1.00
H4082  H     0.15230   0.66743   0.56585   0.00000  Uiso   1.00
H4083  H     0.20151   0.73602   0.67329   0.00000  Uiso   1.00
H4084  H     0.17842   0.73848   0.68258   0.00000  Uiso   1.00
C4085  C     0.02702   0.59326   0.66552   0.00000  Uiso   1.00
C4086  C     0.02517   0.55829   0.59483   0.00000  Uiso   1.00
C4087  C     0.03398   0.57167   0.63029   0.00000  Uiso   1.00
C4088  C     0.04878   0.56396   0.63052   0.00000  Uiso   1.00
C4089  C     0.07082   0.59132   0.65369   0.00000  Uiso   1.00
C4090  C     0.05711   0.59279   0.65920   0.00000  Uiso   1.00
N4091  N     0.01391   0.59323   0.65182   0.00000  Uiso   1.00
N4092  N     0.01276   0.57162   0.60814   0.00000  Uiso   1.00
H4093  H     0.03068   0.60611   0.69458   0.00000  Uiso   1.00
H4094  H     0.02730   0.54243   0.56585   0.00000  Uiso   1.00
H4095  H     0.07651   0.61102   0.67329   0.00000  Uiso   1.00
H4096  H     0.05342   0.61348   0.68258   0.00000  Uiso   1.00
Fe4097 Fe    0.12500   0.73961   0.56250   0.00000  Uiso   1.00
Fe4098 Fe    0.00000   0.61461   0.56250   0.00000  Uiso   1.00
Fe4099 Fe    0.12500   0.51039   0.68750   0.00000  Uiso   1.00
Fe4100 Fe   -0.00000   0.63539   0.68750   0.00000  Uiso   1.00
C4101  C     0.40202   0.53174   0.54052   0.00000  Uiso   1.00
C4102  C     0.40017   0.56671   0.71983   0.00000  Uiso   1.00
C4103  C     0.40898   0.55333   0.50529   0.00000  Uiso   1.00
C4104  C     0.42378   0.56104   0.50552   0.00000  Uiso   1.00
C4105  C     0.44582   0.53368   0.52869   0.00000  Uiso   1.00
C4106  C     0.43211   0.53221   0.53420   0.00000  Uiso   1.00
N4107  N     0.38891   0.53177   0.52682   0.00000  Uiso   1.00
N4108  N     0.38776   0.55338   0.73314   0.00000  Uiso   1.00
H4109  H     0.40568   0.51889   0.56958   0.00000  Uiso   1.00
H4110  H     0.40230   0.58257   0.69085   0.00000  Uiso   1.00
H4111  H     0.45151   0.51398   0.54829   0.00000  Uiso   1.00
H4112  H     0.42842   0.51152   0.55758   0.00000  Uiso   1.00
C4113  C     0.27702   0.65674   0.54052   0.00000  Uiso   1.00
C4114  C     0.27517   0.69171   0.71983   0.00000  Uiso   1.00
C4115  C     0.28398   0.67833   0.50529   0.00000  Uiso   1.00
C4116  C     0.29878   0.68604   0.50552   0.00000  Uiso   1.00
C4117  C     0.32082   0.65868   0.52869   0.00000  Uiso   1.00
C4118  C     0.30711   0.65721   0.53420   0.00000  Uiso   1.00
N4119  N     0.26391   0.65677   0.52682   0.00000  Uiso   1.00
N4120  N     0.26276   0.67838   0.73314   0.00000  Uiso   1.00
H4121  H     0.28068   0.64389   0.56958   0.00000  Uiso   1.00
H4122  H     0.27730   0.70757   0.69085   0.00000  Uiso   1.00
H4123  H     0.32651   0.63898   0.54829   0.00000  Uiso   1.00
H4124  H     0.30342   0.63652   0.55758   0.00000  Uiso   1.00
C4125  C     0.34798   0.53174   0.58448   0.00000  Uiso   1.00
C4126  C     0.34983   0.56671   0.65517   0.00000  Uiso   1.00
C4127  C     0.34102   0.55333   0.61971   0.00000  Uiso   1.00
C4128  C     0.32622   0.56104   0.61948   0.00000  Uiso   1.00
C4129  C     0.30418   0.53368   0.59631   0.00000  Uiso   1.00
C4130  C     0.31789   0.53221   0.59080   0.00000  Uiso   1.00
N4131  N     0.36109   0.53177   0.59818   0.00000  Uiso   1.00
N4132  N     0.36224   0.55338   0.64186   0.00000  Uiso   1.00
H4133  H     0.34432   0.51889   0.55542   0.00000  Uiso   1.00
H4134  H     0.34770   0.58257   0.68415   0.00000  Uiso   1.00
H4135  H     0.29849   0.51398   0.57671   0.00000  Uiso   1.00
H4136  H     0.32158   0.51152   0.56742   0.00000  Uiso   1.00
C4137  C     0.47298   0.65674   0.58448   0.00000  Uiso   1.00
C4138  C     0.47483   0.69171   0.65517   0.00000  Uiso   1.00
C4139  C     0.46602   0.67833   0.61971   0.00000  Uiso   1.00
C4140  C     0.45122   0.68604   0.61948   0.00000  Uiso   1.00
C4141  C     0.42918   0.65868   0.59631   0.00000  Uiso   1.00
C4142  C     0.44289   0.65721   0.59080   0.00000  Uiso   1.00
N4143  N     0.48609   0.65677   0.59818   0.00000  Uiso   1.00
N4144  N     0.48724   0.67838   0.64186   0.00000  Uiso   1.00
H4145  H     0.46932   0.64389   0.55542   0.00000  Uiso   1.00
H4146  H     0.47270   0.70757   0.68415   0.00000  Uiso   1.00
H4147  H     0.42349   0.63898   0.57671   0.00000  Uiso   1.00
H4148  H     0.44658   0.63652   0.56742   0.00000  Uiso   1.00
C4149  C     0.34798   0.71826   0.70948   0.00000  Uiso   1.00
C4150  C     0.34983   0.68329   0.53017   0.00000  Uiso   1.00
C4151  C     0.34102   0.69667   0.74471   0.00000  Uiso   1.00
C4152  C     0.32622   0.68896   0.74448   0.00000  Uiso   1.00
C4153  C     0.30418   0.71632   0.72131   0.00000  Uiso   1.00
C4154  C     0.31789   0.71779   0.71580   0.00000  Uiso   1.00
N4155  N     0.36109   0.71823   0.72318   0.00000  Uiso   1.00
N4156  N     0.36224   0.69662   0.51686   0.00000  Uiso   1.00
H4157  H     0.34432   0.73111   0.68042   0.00000  Uiso   1.00
H4158  H     0.34770   0.66743   0.55915   0.00000  Uiso   1.00
H4159  H     0.29849   0.73602   0.70171   0.00000  Uiso   1.00
H4160  H     0.32158   0.73848   0.69242   0.00000  Uiso   1.00
C4161  C     0.47298   0.59326   0.70948   0.00000  Uiso   1.00
C4162  C     0.47483   0.55829   0.53017   0.00000  Uiso   1.00
C4163  C     0.46602   0.57167   0.74471   0.00000  Uiso   1.00
C4164  C     0.45122   0.56396   0.74448   0.00000  Uiso   1.00
C4165  C     0.42918   0.59132   0.72131   0.00000  Uiso   1.00
C4166  C     0.44289   0.59279   0.71580   0.00000  Uiso   1.00
N4167  N     0.48609   0.59323   0.72318   0.00000  Uiso   1.00
N4168  N     0.48724   0.57162   0.51686   0.00000  Uiso   1.00
H4169  H     0.46932   0.60611   0.68042   0.00000  Uiso   1.00
H4170  H     0.47270   0.54243   0.55915   0.00000  Uiso   1.00
H4171  H     0.42349   0.61102   0.70171   0.00000  Uiso   1.00
H4172  H     0.44658   0.61348   0.69242   0.00000  Uiso   1.00
C4173  C     0.40202   0.71826   0.66552   0.00000  Uiso   1.00
C4174  C     0.40017   0.68329   0.59483   0.00000  Uiso   1.00
C4175  C     0.40898   0.69667   0.63029   0.00000  Uiso   1.00
C4176  C     0.42378   0.68896   0.63052   0.00000  Uiso   1.00
C4177  C     0.44582   0.71632   0.65369   0.00000  Uiso   1.00
C4178  C     0.43211   0.71779   0.65920   0.00000  Uiso   1.00
N4179  N     0.38891   0.71823   0.65182   0.00000  Uiso   1.00
N4180  N     0.38776   0.69662   0.60814   0.00000  Uiso   1.00
H4181  H     0.40568   0.73111   0.69458   0.00000  Uiso   1.00
H4182  H     0.40230   0.66743   0.56585   0.00000  Uiso   1.00
H4183  H     0.45151   0.73602   0.67329   0.00000  Uiso   1.00
H4184  H     0.42842   0.73848   0.68258   0.00000  Uiso   1.00
C4185  C     0.27702   0.59326   0.66552   0.00000  Uiso   1.00
C4186  C     0.27517   0.55829   0.59483   0.00000  Uiso   1.00
C4187  C     0.28398   0.57167   0.63029   0.00000  Uiso   1.00
C4188  C     0.29878   0.56396   0.63052   0.00000  Uiso   1.00
C4189  C     0.32082   0.59132   0.65369   0.00000  Uiso   1.00
C4190  C     0.30711   0.59279   0.65920   0.00000  Uiso   1.00
N4191  N     0.26391   0.59323   0.65182   0.00000  Uiso   1.00
N4192  N     0.26276   0.57162   0.60814   0.00000  Uiso   1.00
H4193  H     0.28068   0.60611   0.69458   0.00000  Uiso   1.00
H4194  H     0.27730   0.54243   0.56585   0.00000  Uiso   1.00
H4195  H     0.32651   0.61102   0.67329   0.00000  Uiso   1.00
H4196  H     0.30342   0.61348   0.68258   0.00000  Uiso   1.00
Fe4197 Fe    0.37500   0.73961   0.56250   0.00000  Uiso   1.00
Fe4198 Fe    0.25000   0.61461   0.56250   0.00000  Uiso   1.00
Fe4199 Fe    0.37500   0.51039   0.68750   0.00000  Uiso   1.00
Fe4200 Fe    0.25000   0.63539   0.68750   0.00000  Uiso   1.00
C4201  C     0.65202   0.53174   0.54052   0.00000  Uiso   1.00
C4202  C     0.65017   0.56671   0.71983   0.00000  Uiso   1.00
C4203  C     0.65898   0.55333   0.50529   0.00000  Uiso   1.00
C4204  C     0.67378   0.56104   0.50552   0.00000  Uiso   1.00
C4205  C     0.69582   0.53368   0.52869   0.00000  Uiso   1.00
C4206  C     0.68211   0.53221   0.53420   0.00000  Uiso   1.00
N4207  N     0.63891   0.53177   0.52682   0.00000  Uiso   1.00
N4208  N     0.63776   0.55338   0.73314   0.00000  Uiso   1.00
H4209  H     0.65568   0.51889   0.56958   0.00000  Uiso   1.00
H4210  H     0.65230   0.58257   0.69085   0.00000  Uiso   1.00
H4211  H     0.70151   0.51398   0.54829   0.00000  Uiso   1.00
H4212  H     0.67842   0.51152   0.55758   0.00000  Uiso   1.00
C4213  C     0.52702   0.65674   0.54052   0.00000  Uiso   1.00
C4214  C     0.52517   0.69171   0.71983   0.00000  Uiso   1.00
C4215  C     0.53398   0.67833   0.50529   0.00000  Uiso   1.00
C4216  C     0.54878   0.68604   0.50552   0.00000  Uiso   1.00
C4217  C     0.57082   0.65868   0.52869   0.00000  Uiso   1.00
C4218  C     0.55711   0.65721   0.53420   0.00000  Uiso   1.00
N4219  N     0.51391   0.65677   0.52682   0.00000  Uiso   1.00
N4220  N     0.51276   0.67838   0.73314   0.00000  Uiso   1.00
H4221  H     0.53068   0.64389   0.56958   0.00000  Uiso   1.00
H4222  H     0.52730   0.70757   0.69085   0.00000  Uiso   1.00
H4223  H     0.57651   0.63898   0.54829   0.00000  Uiso   1.00
H4224  H     0.55342   0.63652   0.55758   0.00000  Uiso   1.00
C4225  C     0.59798   0.53174   0.58448   0.00000  Uiso   1.00
C4226  C     0.59983   0.56671   0.65517   0.00000  Uiso   1.00
C4227  C     0.59102   0.55333   0.61971   0.00000  Uiso   1.00
C4228  C     0.57622   0.56104   0.61948   0.00000  Uiso   1.00
C4229  C     0.55418   0.53368   0.59631   0.00000  Uiso   1.00
C4230  C     0.56789   0.53221   0.59080   0.00000  Uiso   1.00
N4231  N     0.61109   0.53177   0.59818   0.00000  Uiso   1.00
N4232  N     0.61224   0.55338   0.64186   0.00000  Uiso   1.00
H4233  H     0.59432   0.51889   0.55542   0.00000  Uiso   1.00
H4234  H     0.59770   0.58257   0.68415   0.00000  Uiso   1.00
H4235  H     0.54849   0.51398   0.57671   0.00000  Uiso   1.00
H4236  H     0.57158   0.51152   0.56742   0.00000  Uiso   1.00
C4237  C     0.72298   0.65674   0.58448   0.00000  Uiso   1.00
C4238  C     0.72483   0.69171   0.65517   0.00000  Uiso   1.00
C4239  C     0.71602   0.67833   0.61971   0.00000  Uiso   1.00
C4240  C     0.70122   0.68604   0.61948   0.00000  Uiso   1.00
C4241  C     0.67918   0.65868   0.59631   0.00000  Uiso   1.00
C4242  C     0.69289   0.65721   0.59080   0.00000  Uiso   1.00
N4243  N     0.73609   0.65677   0.59818   0.00000  Uiso   1.00
N4244  N     0.73724   0.67838   0.64186   0.00000  Uiso   1.00
H4245  H     0.71932   0.64389   0.55542   0.00000  Uiso   1.00
H4246  H     0.72270   0.70757   0.68415   0.00000  Uiso   1.00
H4247  H     0.67349   0.63898   0.57671   0.00000  Uiso   1.00
H4248  H     0.69658   0.63652   0.56742   0.00000  Uiso   1.00
C4249  C     0.59798   0.71826   0.70948   0.00000  Uiso   1.00
C4250  C     0.59983   0.68329   0.53017   0.00000  Uiso   1.00
C4251  C     0.59102   0.69667   0.74471   0.00000  Uiso   1.00
C4252  C     0.57622   0.68896   0.74448   0.00000  Uiso   1.00
C4253  C     0.55418   0.71632   0.72131   0.00000  Uiso   1.00
C4254  C     0.56789   0.71779   0.71580   0.00000  Uiso   1.00
N4255  N     0.61109   0.71823   0.72318   0.00000  Uiso   1.00
N4256  N     0.61224   0.69662   0.51686   0.00000  Uiso   1.00
H4257  H     0.59432   0.73111   0.68042   0.00000  Uiso   1.00
H4258  H     0.59770   0.66743   0.55915   0.00000  Uiso   1.00
H4259  H     0.54849   0.73602   0.70171   0.00000  Uiso   1.00
H4260  H     0.57158   0.73848   0.69242   0.00000  Uiso   1.00
C4261  C     0.72298   0.59326   0.70948   0.00000  Uiso   1.00
C4262  C     0.72483   0.55829   0.53017   0.00000  Uiso   1.00
C4263  C     0.71602   0.57167   0.74471   0.00000  Uiso   1.00
C4264  C     0.70122   0.56396   0.74448   0.00000  Uiso   1.00
C4265  C     0.67918   0.59132   0.72131   0.00000  Uiso   1.00
C4266  C     0.69289   0.59279   0.71580   0.00000  Uiso   1.00
N4267  N     0.73609   0.59323   0.72318   0.00000  Uiso   1.00
N4268  N     0.73724   0.57162   0.51686   0.00000  Uiso   1.00
H4269  H     0.71932   0.60611   0.68042   0.00000  Uiso   1.00
H4270  H     0.72270   0.54243   0.55915   0.00000  Uiso   1.00
H4271  H     0.67349   0.61102   0.70171   0.00000  Uiso   1.00
H4272  H     0.69658   0.61348   0.69242   0.00000  Uiso   1.00
C4273  C     0.65202   0.71826   0.66552   0.00000  Uiso   1.00
C4274  C     0.65017   0.68329   0.59483   0.00000  Uiso   1.00
C4275  C     0.65898   0.69667   0.63029   0.00000  Uiso   1.00
C4276  C     0.67378   0.68896   0.63052   0.00000  Uiso   1.00
C4277  C     0.69582   0.71632   0.65369   0.00000  Uiso   1.00
C4278  C     0.68211   0.71779   0.65920   0.00000  Uiso   1.00
N4279  N     0.63891   0.71823   0.65182   0.00000  Uiso   1.00
N4280  N     0.63776   0.69662   0.60814   0.00000  Uiso   1.00
H4281  H     0.65568   0.73111   0.69458   0.00000  Uiso   1.00
H4282  H     0.65230   0.66743   0.56585   0.00000  Uiso   1.00
H4283  H     0.70151   0.73602   0.67329   0.00000  Uiso   1.00
H4284  H     0.67842   0.73848   0.68258   0.00000  Uiso   1.00
C4285  C     0.52702   0.59326   0.66552   0.00000  Uiso   1.00
C4286  C     0.52517   0.55829   0.59483   0.00000  Uiso   1.00
C4287  C     0.53398   0.57167   0.63029   0.00000  Uiso   1.00
C4288  C     0.54878   0.56396   0.63052   0.00000  Uiso   1.00
C4289  C     0.57082   0.59132   0.65369   0.00000  Uiso   1.00
C4290  C     0.55711   0.59279   0.65920   0.00000  Uiso   1.00
N4291  N     0.51391   0.59323   0.65182   0.00000  Uiso   1.00
N4292  N     0.51276   0.57162   0.60814   0.00000  Uiso   1.00
H4293  H     0.53068   0.60611   0.69458   0.00000  Uiso   1.00
H4294  H     0.52730   0.54243   0.56585   0.00000  Uiso   1.00
H4295  H     0.57651   0.61102   0.67329   0.00000  Uiso   1.00
H4296  H     0.55342   0.61348   0.68258   0.00000  Uiso   1.00
Fe4297 Fe    0.62500   0.73961   0.56250   0.00000  Uiso   1.00
Fe4298 Fe    0.50000   0.61461   0.56250   0.00000  Uiso   1.00
Fe4299 Fe    0.62500   0.51039   0.68750   0.00000  Uiso   1.00
Fe4300 Fe    0.50000   0.63539   0.68750   0.00000  Uiso   1.00
C4301  C     0.90202   0.53174   0.54052   0.00000  Uiso   1.00
C4302  C     0.90017   0.56671   0.71983   0.00000  Uiso   1.00
C4303  C     0.90898   0.55333   0.50529   0.00000  Uiso   1.00
C4304  C     0.92378   0.56104   0.50552   0.00000  Uiso   1.00
C4305  C     0.94582   0.53368   0.52869   0.00000  Uiso   1.00
C4306  C     0.93211   0.53221   0.53420   0.00000  Uiso   1.00
N4307  N     0.88891   0.53177   0.52682   0.00000  Uiso   1.00
N4308  N     0.88776   0.55338   0.73314   0.00000  Uiso   1.00
H4309  H     0.90568   0.51889   0.56958   0.00000  Uiso   1.00
H4310  H     0.90230   0.58257   0.69085   0.00000  Uiso   1.00
H4311  H     0.95151   0.51398   0.54829   0.00000  Uiso   1.00
H4312  H     0.92842   0.51152   0.55758   0.00000  Uiso   1.00
C4313  C     0.77702   0.65674   0.54052   0.00000  Uiso   1.00
C4314  C     0.77517   0.69171   0.71983   0.00000  Uiso   1.00
C4315  C     0.78398   0.67833   0.50529   0.00000  Uiso   1.00
C4316  C     0.79878   0.68604   0.50552   0.00000  Uiso   1.00
C4317  C     0.82082   0.65868   0.52869   0.00000  Uiso   1.00
C4318  C     0.80711   0.65721   0.53420   0.00000  Uiso   1.00
N4319  N     0.76391   0.65677   0.52682   0.00000  Uiso   1.00
N4320  N     0.76276   0.67838   0.73314   0.00000  Uiso   1.00
H4321  H     0.78068   0.64389   0.56958   0.00000  Uiso   1.00
H4322  H     0.77730   0.70757   0.69085   0.00000  Uiso   1.00
H4323  H     0.82651   0.63898   0.54829   0.00000  Uiso   1.00
H4324  H     0.80342   0.63652   0.55758   0.00000  Uiso   1.00
C4325  C     0.84798   0.53174   0.58448   0.00000  Uiso   1.00
C4326  C     0.84983   0.56671   0.65517   0.00000  Uiso   1.00
C4327  C     0.84102   0.55333   0.61971   0.00000  Uiso   1.00
C4328  C     0.82622   0.56104   0.61948   0.00000  Uiso   1.00
C4329  C     0.80418   0.53368   0.59631   0.00000  Uiso   1.00
C4330  C     0.81789   0.53221   0.59080   0.00000  Uiso   1.00
N4331  N     0.86109   0.53177   0.59818   0.00000  Uiso   1.00
N4332  N     0.86224   0.55338   0.64186   0.00000  Uiso   1.00
H4333  H     0.84432   0.51889   0.55542   0.00000  Uiso   1.00
H4334  H     0.84770   0.58257   0.68415   0.00000  Uiso   1.00
H4335  H     0.79849   0.51398   0.57671   0.00000  Uiso   1.00
H4336  H     0.82158   0.51152   0.56742   0.00000  Uiso   1.00
C4337  C     0.97298   0.65674   0.58448   0.00000  Uiso   1.00
C4338  C     0.97483   0.69171   0.65517   0.00000  Uiso   1.00
C4339  C     0.96602   0.67833   0.61971   0.00000  Uiso   1.00
C4340  C     0.95122   0.68604   0.61948   0.00000  Uiso   1.00
C4341  C     0.92918   0.65868   0.59631   0.00000  Uiso   1.00
C4342  C     0.94289   0.65721   0.59080   0.00000  Uiso   1.00
N4343  N     0.98609   0.65677   0.59818   0.00000  Uiso   1.00
N4344  N     0.98724   0.67838   0.64186   0.00000  Uiso   1.00
H4345  H     0.96932   0.64389   0.55542   0.00000  Uiso   1.00
H4346  H     0.97270   0.70757   0.68415   0.00000  Uiso   1.00
H4347  H     0.92349   0.63898   0.57671   0.00000  Uiso   1.00
H4348  H     0.94658   0.63652   0.56742   0.00000  Uiso   1.00
C4349  C     0.84798   0.71826   0.70948   0.00000  Uiso   1.00
C4350  C     0.84983   0.68329   0.53017   0.00000  Uiso   1.00
C4351  C     0.84102   0.69667   0.74471   0.00000  Uiso   1.00
C4352  C     0.82622   0.68896   0.74448   0.00000  Uiso   1.00
C4353  C     0.80418   0.71632   0.72131   0.00000  Uiso   1.00
C4354  C     0.81789   0.71779   0.71580   0.00000  Uiso   1.00
N4355  N     0.86109   0.71823   0.72318   0.00000  Uiso   1.00
N4356  N     0.86224   0.69662   0.51686   0.00000  Uiso   1.00
H4357  H     0.84432   0.73111   0.68042   0.00000  Uiso   1.00
H4358  H     0.84770   0.66743   0.55915   0.00000  Uiso   1.00
H4359  H     0.79849   0.73602   0.70171   0.00000  Uiso   1.00
H4360  H     0.82158   0.73848   0.69242   0.00000  Uiso   1.00
C4361  C     0.97298   0.59326   0.70948   0.00000  Uiso   1.00
C4362  C     0.97483   0.55829   0.53017   0.00000  Uiso   1.00
C4363  C     0.96602   0.57167   0.74471   0.00000  Uiso   1.00
C4364  C     0.95122   0.56396   0.74448   0.00000  Uiso   1.00
C4365  C     0.92918   0.59132   0.72131   0.00000  Uiso   1.00
C4366  C     0.94289   0.59279   0.71580   0.00000  Uiso   1.00
N4367  N     0.98609   0.59323   0.72318   0.00000  Uiso   1.00
N4368  N     0.98724   0.57162   0.51686   0.00000  Uiso   1.00
H4369  H     0.96932   0.60611   0.68042   0.00000  Uiso   1.00
H4370  H     0.97270   0.54243   0.55915   0.00000  Uiso   1.00
H4371  H     0.92349   0.61102   0.70171   0.00000  Uiso   1.00
H4372  H     0.94658   0.61348   0.69242   0.00000  Uiso   1.00
C4373  C     0.90202   0.71826   0.66552   0.00000  Uiso   1.00
C4374  C     0.90017   0.68329   0.59483   0.00000  Uiso   1.00
C4375  C     0.90898   0.69667   0.63029   0.00000  Uiso   1.00
C4376  C     0.92378   0.68896   0.63052   0.00000  Uiso   1.00
C4377  C     0.94582   0.71632   0.65369   0.00000  Uiso   1.00
C4378  C     0.93211   0.71779   0.65920   0.00000  Uiso   1.00
N4379  N     0.88891   0.71823   0.65182   0.00000  Uiso   1.00
N4380  N     0.88776   0.69662   0.60814   0.00000  Uiso   1.00
H4381  H     0.90568   0.73111   0.69458   0.00000  Uiso   1.00
H4382  H     0.90230   0.66743   0.56585   0.00000  Uiso   1.00
H4383  H     0.95151   0.73602   0.67329   0.00000  Uiso   1.00
H4384  H     0.92842   0.73848   0.68258   0.00000  Uiso   1.00
C4385  C     0.77702   0.59326   0.66552   0.00000  Uiso   1.00
C4386  C     0.77517   0.55829   0.59483   0.00000  Uiso   1.00
C4387  C     0.78398   0.57167   0.63029   0.00000  Uiso   1.00
C4388  C     0.79878   0.56396   0.63052   0.00000  Uiso   1.00
C4389  C     0.82082   0.59132   0.65369   0.00000  Uiso   1.00
C4390  C     0.80711   0.59279   0.65920   0.00000  Uiso   1.00
N4391  N     0.76391   0.59323   0.65182   0.00000  Uiso   1.00
N4392  N     0.76276   0.57162   0.60814   0.00000  Uiso   1.00
H4393  H     0.78068   0.60611   0.69458   0.00000  Uiso   1.00
H4394  H     0.77730   0.54243   0.56585   0.00000  Uiso   1.00
H4395  H     0.82651   0.61102   0.67329   0.00000  Uiso   1.00
H4396  H     0.80342   0.61348   0.68258   0.00000  Uiso   1.00
Fe4397 Fe    0.87500   0.73961   0.56250   0.00000  Uiso   1.00
Fe4398 Fe    0.75000   0.61461   0.56250   0.00000  Uiso   1.00
Fe4399 Fe    0.87500   0.51039   0.68750   0.00000  Uiso   1.00
Fe4400 Fe    0.75000   0.63539   0.68750   0.00000  Uiso   1.00
C4401  C     0.15202   0.78174   0.54052   0.00000  Uiso   1.00
C4402  C     0.15017   0.81671   0.71983   0.00000  Uiso   1.00
C4403  C     0.15898   0.80333   0.50529   0.00000  Uiso   1.00
C4404  C     0.17378   0.81104   0.50552   0.00000  Uiso   1.00
C4405  C     0.19582   0.78368   0.52869   0.00000  Uiso   1.00
C4406  C     0.18211   0.78221   0.53420   0.00000  Uiso   1.00
N4407  N     0.13891   0.78177   0.52682   0.00000  Uiso   1.00
N4408  N     0.13776   0.80338   0.73314   0.00000  Uiso   1.00
H4409  H     0.15568   0.76889   0.56958   0.00000  Uiso   1.00
H4410  H     0.15230   0.83257   0.69085   0.00000  Uiso   1.00
H4411  H     0.20151   0.76398   0.54829   0.00000  Uiso   1.00
H4412  H     0.17842   0.76152   0.55758   0.00000  Uiso   1.00
C4413  C     0.02702   0.90674   0.54052   0.00000  Uiso   1.00
C4414  C     0.02517   0.94171   0.71983   0.00000  Uiso   1.00
C4415  C     0.03398   0.92833   0.50529   0.00000  Uiso   1.00
C4416  C     0.04878   0.93604   0.50552   0.00000  Uiso   1.00
C4417  C     0.07082   0.90868   0.52869   0.00000  Uiso   1.00
C4418  C     0.05711   0.90721   0.53420   0.00000  Uiso   1.00
N4419  N     0.01391   0.90677   0.52682   0.00000  Uiso   1.00
N4420  N     0.01276   0.92838   0.73314   0.00000  Uiso   1.00
H4421  H     0.03068   0.89389   0.56958   0.00000  Uiso   1.00
H4422  H     0.02730   0.95757   0.69085   0.00000  Uiso   1.00
H4423  H     0.07651   0.88898   0.54829   0.00000  Uiso   1.00
H4424  H     0.05342   0.88652   0.55758   0.00000  Uiso   1.00
C4425  C     0.09798   0.78174   0.58448   0.00000  Uiso   1.00
C4426  C     0.09983   0.81671   0.65517   0.00000  Uiso   1.00
C4427  C     0.09102   0.80333   0.61971   0.00000  Uiso   1.00
C4428  C     0.07622   0.81104   0.61948   0.00000  Uiso   1.00
C4429  C     0.05418   0.78368   0.59631   0.00000  Uiso   1.00
C4430  C     0.06789   0.78221   0.59080   0.00000  Uiso   1.00
N4431  N     0.11109   0.78177   0.59818   0.00000  Uiso   1.00
N4432  N     0.11224   0.80338   0.64186   0.00000  Uiso   1.00
H4433  H     0.09432   0.76889   0.55542   0.00000  Uiso   1.00
H4434  H     0.09770   0.83257   0.68415   0.00000  Uiso   1.00
H4435  H     0.04849   0.76398   0.57671   0.00000  Uiso   1.00
H4436  H     0.07158   0.76152   0.56742   0.00000  Uiso   1.00
C4437  C     0.22298   0.90674   0.58448   0.00000  Uiso   1.00
C4438  C     0.22483   0.94171   0.65517   0.00000  Uiso   1.00
C4439  C     0.21602   0.92833   0.61971   0.00000  Uiso   1.00
C4440  C     0.20122   0.93604   0.61948   0.00000  Uiso   1.00
C4441  C     0.17918   0.90868   0.59631   0.00000  Uiso   1.00
C4442  C     0.19289   0.90721   0.59080   0.00000  Uiso   1.00
N4443  N     0.23609   0.90677   0.59818   0.00000  Uiso   1.00
N4444  N     0.23724   0.92838   0.64186   0.00000  Uiso   1.00
H4445  H     0.21932   0.89389   0.55542   0.00000  Uiso   1.00
H4446  H     0.22270   0.95757   0.68415   0.00000  Uiso   1.00
H4447  H     0.17349   0.88898   0.57671   0.00000  Uiso   1.00
H4448  H     0.19658   0.88652   0.56742   0.00000  Uiso   1.00
C4449  C     0.09798   0.96826   0.70948   0.00000  Uiso   1.00
C4450  C     0.09983   0.93329   0.53017   0.00000  Uiso   1.00
C4451  C     0.09102   0.94667   0.74471   0.00000  Uiso   1.00
C4452  C     0.07622   0.93896   0.74448   0.00000  Uiso   1.00
C4453  C     0.05418   0.96632   0.72131   0.00000  Uiso   1.00
C4454  C     0.06789   0.96779   0.71580   0.00000  Uiso   1.00
N4455  N     0.11109   0.96823   0.72318   0.00000  Uiso   1.00
N4456  N     0.11224   0.94662   0.51686   0.00000  Uiso   1.00
H4457  H     0.09432   0.98111   0.68042   0.00000  Uiso   1.00
H4458  H     0.09770   0.91743   0.55915   0.00000  Uiso   1.00
H4459  H     0.04849   0.98602   0.70171   0.00000  Uiso   1.00
H4460  H     0.07158   0.98848   0.69242   0.00000  Uiso   1.00
C4461  C     0.22298   0.84326   0.70948   0.00000  Uiso   1.00
C4462  C     0.22483   0.80829   0.53017   0.00000  Uiso   1.00
C4463  C     0.21602   0.82167   0.74471   0.00000  Uiso   1.00
C4464  C     0.20122   0.81396   0.74448   0.00000  Uiso   1.00
C4465  C     0.17918   0.84132   0.72131   0.00000  Uiso   1.00
C4466  C     0.19289   0.84279   0.71580   0.00000  Uiso   1.00
N4467  N     0.23609   0.84323   0.72318   0.00000  Uiso   1.00
N4468  N     0.23724   0.82162   0.51686   0.00000  Uiso   1.00
H4469  H     0.21932   0.85611   0.68042   0.00000  Uiso   1.00
H4470  H     0.22270   0.79243   0.55915   0.00000  Uiso   1.00
H4471  H     0.17349   0.86102   0.70171   0.00000  Uiso   1.00
H4472  H     0.19658   0.86348   0.69242   0.00000  Uiso   1.00
C4473  C     0.15202   0.96826   0.66552   0.00000  Uiso   1.00
C4474  C     0.15017   0.93329   0.59483   0.00000  Uiso   1.00
C4475  C     0.15898   0.94667   0.63029   0.00000  Uiso   1.00
C4476  C     0.17378   0.93896   0.63052   0.00000  Uiso   1.00
C4477  C     0.19582   0.96632   0.65369   0.00000  Uiso   1.00
C4478  C     0.18211   0.96779   0.65920   0.00000  Uiso   1.00
N4479  N     0.13891   0.96823   0.65182   0.00000  Uiso   1.00
N4480  N     0.13776   0.94662   0.60814   0.00000  Uiso   1.00
H4481  H     0.15568   0.98111   0.69458   0.00000  Uiso   1.00
H4482  H     0.15230   0.91743   0.56585   0.00000  Uiso   1.00
H4483  H     0.20151   0.98602   0.67329   0.00000  Uiso   1.00
H4484  H     0.17842   0.98848   0.68258   0.00000  Uiso   1.00
C4485  C     0.02702   0.84326   0.66552   0.00000  Uiso   1.00
C4486  C     0.02517   0.80829   0.59483   0.00000  Uiso   1.00
C4487  C     0.03398   0.82167   0.63029   0.00000  Uiso   1.00
C4488  C     0.04878   0.81396   0.63052   0.00000  Uiso   1.00
C4489  C     0.07082   0.84132   0.65369   0.00000  Uiso   1.00
C4490  C     0.05711   0.84279   0.65920   0.00000  Uiso   1.00
N4491  N     0.01391   0.84323   0.65182   0.00000  Uiso   1.00
N4492  N     0.01276   0.82162   0.60814   0.00000  Uiso   1.00
H4493  H     0.03068   0.85611   0.69458   0.00000  Uiso   1.00
H4494  H     0.02730   0.79243   0.56585   0.00000  Uiso   1.00
H4495  H     0.07651   0.86102   0.67329   0.00000  Uiso   1.00
H4496  H     0.05342   0.86348   0.68258   0.00000  Uiso   1.00
Fe4497 Fe    0.12500   0.98961   0.56250   0.00000  Uiso   1.00
Fe4498 Fe    0.00000   0.86461   0.56250   0.00000  Uiso   1.00
Fe4499 Fe    0.12500   0.76039   0.68750   0.00000  Uiso   1.00
Fe4500 Fe   -0.00000   0.88539   0.68750   0.00000  Uiso   1.00
C4501  C     0.40202   0.78174   0.54052   0.00000  Uiso   1.00
C4502  C     0.40017   0.81671   0.71983   0.00000  Uiso   1.00
C4503  C     0.40898   0.80333   0.50529   0.00000  Uiso   1.00
C4504  C     0.42378   0.81104   0.50552   0.00000  Uiso   1.00
C4505  C     0.44582   0.78368   0.52869   0.00000  Uiso   1.00
C4506  C     0.43211   0.78221   0.53420   0.00000  Uiso   1.00
N4507  N     0.38891   0.78177   0.52682   0.00000  Uiso   1.00
N4508  N     0.38776   0.80338   0.73314   0.00000  Uiso   1.00
H4509  H     0.40568   0.76889   0.56958   0.00000  Uiso   1.00
H4510  H     0.40230   0.83257   0.69085   0.00000  Uiso   1.00
H4511  H     0.45151   0.76398   0.54829   0.00000  Uiso   1.00
H4512  H     0.42842   0.76152   0.55758   0.00000  Uiso   1.00
C4513  C     0.27702   0.90674   0.54052   0.00000  Uiso   1.00
C4514  C     0.27517   0.94171   0.71983   0.00000  Uiso   1.00
C4515  C     0.28398   0.92833   0.50529   0.00000  Uiso   1.00
C4516  C     0.29878   0.93604   0.50552   0.00000  Uiso   1.00
C4517  C     0.32082   0.90868   0.52869   0.00000  Uiso   1.00
C4518  C     0.30711   0.90721   0.53420   0.00000  Uiso   1.00
N4519  N     0.26391   0.90677   0.52682   0.00000  Uiso   1.00
N4520  N     0.26276   0.92838   0.73314   0.00000  Uiso   1.00
H4521  H     0.28068   0.89389   0.56958   0.00000  Uiso   1.00
H4522  H     0.27730   0.95757   0.69085   0.00000  Uiso   1.00
H4523  H     0.32651   0.88898   0.54829   0.00000  Uiso   1.00
H4524  H     0.30342   0.88652   0.55758   0.00000  Uiso   1.00
C4525  C     0.34798   0.78174   0.58448   0.00000  Uiso   1.00
C4526  C     0.34983   0.81671   0.65517   0.00000  Uiso   1.00
C4527  C     0.34102   0.80333   0.61971   0.00000  Uiso   1.00
C4528  C     0.32622   0.81104   0.61948   0.00000  Uiso   1.00
C4529  C     0.30418   0.78368   0.59631   0.00000  Uiso   1.00
C4530  C     0.31789   0.78221   0.59080   0.00000  Uiso   1.00
N4531  N     0.36109   0.78177   0.59818   0.00000  Uiso   1.00
N4532  N     0.36224   0.80338   0.64186   0.00000  Uiso   1.00
H4533  H     0.34432   0.76889   0.55542   0.00000  Uiso   1.00
H4534  H     0.34770   0.83257   0.68415   0.00000  Uiso   1.00
H4535  H     0.29849   0.76398   0.57671   0.00000  Uiso   1.00
H4536  H     0.32158   0.76152   0.56742   0.00000  Uiso   1.00
C4537  C     0.47298   0.90674   0.58448   0.00000  Uiso   1.00
C4538  C     0.47483   0.94171   0.65517   0.00000  Uiso   1.00
C4539  C     0.46602   0.92833   0.61971   0.00000  Uiso   1.00
C4540  C     0.45122   0.93604   0.61948   0.00000  Uiso   1.00
C4541  C     0.42918   0.90868   0.59631   0.00000  Uiso   1.00
C4542  C     0.44289   0.90721   0.59080   0.00000  Uiso   1.00
N4543  N     0.48609   0.90677   0.59818   0.00000  Uiso   1.00
N4544  N     0.48724   0.92838   0.64186   0.00000  Uiso   1.00
H4545  H     0.46932   0.89389   0.55542   0.00000  Uiso   1.00
H4546  H     0.47270   0.95757   0.68415   0.00000  Uiso   1.00
H4547  H     0.42349   0.88898   0.57671   0.00000  Uiso   1.00
H4548  H     0.44658   0.88652   0.56742   0.00000  Uiso   1.00
C4549  C     0.34798   0.96826   0.70948   0.00000  Uiso   1.00
C4550  C     0.34983   0.93329   0.53017   0.00000  Uiso   1.00
C4551  C     0.34102   0.94667   0.74471   0.00000  Uiso   1.00
C4552  C     0.32622   0.93896   0.74448   0.00000  Uiso   1.00
C4553  C     0.30418   0.96632   0.72131   0.00000  Uiso   1.00
C4554  C     0.31789   0.96779   0.71580   0.00000  Uiso   1.00
N4555  N     0.36109   0.96823   0.72318   0.00000  Uiso   1.00
N4556  N     0.36224   0.94662   0.51686   0.00000  Uiso   1.00
H4557  H     0.34432   0.98111   0.68042   0.00000  Uiso   1.00
H4558  H     0.34770   0.91743   0.55915   0.00000  Uiso   1.00
H4559  H     0.29849   0.98602   0.70171   0.00000  Uiso   1.00
H4560  H     0.32158   0.98848   0.69242   0.00000  Uiso   1.00
C4561  C     0.47298   0.84326   0.70948   0.00000  Uiso   1.00
C4562  C     0.47483   0.80829   0.53017   0.00000  Uiso   1.00
C4563  C     0.46602   0.82167   0.74471   0.00000  Uiso   1.00
C4564  C     0.45122   0.81396   0.74448   0.00000  Uiso   1.00
C4565  C     0.42918   0.84132   0.72131   0.00000  Uiso   1.00
C4566  C     0.44289   0.84279   0.71580   0.00000  Uiso   1.00
N4567  N     0.48609   0.84323   0.72318   0.00000  Uiso   1.00
N4568  N     0.48724   0.82162   0.51686   0.00000  Uiso   1.00
H4569  H     0.46932   0.85611   0.68042   0.00000  Uiso   1.00
H4570  H     0.47270   0.79243   0.55915   0.00000  Uiso   1.00
H4571  H     0.42349   0.86102   0.70171   0.00000  Uiso   1.00
H4572  H     0.44658   0.86348   0.69242   0.00000  Uiso   1.00
C4573  C     0.40202   0.96826   0.66552   0.00000  Uiso   1.00
C4574  C     0.40017   0.93329   0.59483   0.00000  Uiso   1.00
C4575  C     0.40898   0.94667   0.63029   0.00000  Uiso   1.00
C4576  C     0.42378   0.93896   0.63052   0.00000  Uiso   1.00
C4577  C     0.44582   0.96632   0.65369   0.00000  Uiso   1.00
C4578  C     0.43211   0.96779   0.65920   0.00000  Uiso   1.00
N4579  N     0.38891   0.96823   0.65182   0.00000  Uiso   1.00
N4580  N     0.38776   0.94662   0.60814   0.00000  Uiso   1.00
H4581  H     0.40568   0.98111   0.69458   0.00000  Uiso   1.00
H4582  H     0.40230   0.91743   0.56585   0.00000  Uiso   1.00
H4583  H     0.45151   0.98602   0.67329   0.00000  Uiso   1.00
H4584  H     0.42842   0.98848   0.68258   0.00000  Uiso   1.00
C4585  C     0.27702   0.84326   0.66552   0.00000  Uiso   1.00
C4586  C     0.27517   0.80829   0.59483   0.00000  Uiso   1.00
C4587  C     0.28398   0.82167   0.63029   0.00000  Uiso   1.00
C4588  C     0.29878   0.81396   0.63052   0.00000  Uiso   1.00
C4589  C     0.32082   0.84132   0.65369   0.00000  Uiso   1.00
C4590  C     0.30711   0.84279   0.65920   0.00000  Uiso   1.00
N4591  N     0.26391   0.84323   0.65182   0.00000  Uiso   1.00
N4592  N     0.26276   0.82162   0.60814   0.00000  Uiso   1.00
H4593  H     0.28068   0.85611   0.69458   0.00000  Uiso   1.00
H4594  H     0.27730   0.79243   0.56585   0.00000  Uiso   1.00
H4595  H     0.32651   0.86102   0.67329   0.00000  Uiso   1.00
H4596  H     0.30342   0.86348   0.68258   0.00000  Uiso   1.00
Fe4597 Fe    0.37500   0.98961   0.56250   0.00000  Uiso   1.00
Fe4598 Fe    0.25000   0.86461   0.56250   0.00000  Uiso   1.00
Fe4599 Fe    0.37500   0.76039   0.68750   0.00000  Uiso   1.00
Fe4600 Fe    0.25000   0.88539   0.68750   0.00000  Uiso   1.00
C4601  C     0.65202   0.78174   0.54052   0.00000  Uiso   1.00
C4602  C     0.65017   0.81671   0.71983   0.00000  Uiso   1.00
C4603  C     0.65898   0.80333   0.50529   0.00000  Uiso   1.00
C4604  C     0.67378   0.81104   0.50552   0.00000  Uiso   1.00
C4605  C     0.69582   0.78368   0.52869   0.00000  Uiso   1.00
C4606  C     0.68211   0.78221   0.53420   0.00000  Uiso   1.00
N4607  N     0.63891   0.78177   0.52682   0.00000  Uiso   1.00
N4608  N     0.63776   0.80338   0.73314   0.00000  Uiso   1.00
H4609  H     0.65568   0.76889   0.56958   0.00000  Uiso   1.00
H4610  H     0.65230   0.83257   0.69085   0.00000  Uiso   1.00
H4611  H     0.70151   0.76398   0.54829   0.00000  Uiso   1.00
H4612  H     0.67842   0.76152   0.55758   0.00000  Uiso   1.00
C4613  C     0.52702   0.90674   0.54052   0.00000  Uiso   1.00
C4614  C     0.52517   0.94171   0.71983   0.00000  Uiso   1.00
C4615  C     0.53398   0.92833   0.50529   0.00000  Uiso   1.00
C4616  C     0.54878   0.93604   0.50552   0.00000  Uiso   1.00
C4617  C     0.57082   0.90868   0.52869   0.00000  Uiso   1.00
C4618  C     0.55711   0.90721   0.53420   0.00000  Uiso   1.00
N4619  N     0.51391   0.90677   0.52682   0.00000  Uiso   1.00
N4620  N     0.51276   0.92838   0.73314   0.00000  Uiso   1.00
H4621  H     0.53068   0.89389   0.56958   0.00000  Uiso   1.00
H4622  H     0.52730   0.95757   0.69085   0.00000  Uiso   1.00
H4623  H     0.57651   0.88898   0.54829   0.00000  Uiso   1.00
H4624  H     0.55342   0.88652   0.55758   0.00000  Uiso   1.00
C4625  C     0.59798   0.78174   0.58448   0.00000  Uiso   1.00
C4626  C     0.59983   0.81671   0.65517   0.00000  Uiso   1.00
C4627  C     0.59102   0.80333   0.61971   0.00000  Uiso   1.00
C4628  C     0.57622   0.81104   0.61948   0.00000  Uiso   1.00
C4629  C     0.55418   0.78368   0.59631   0.00000  Uiso   1.00
C4630  C     0.56789   0.78221   0.59080   0.00000  Uiso   1.00
N4631  N     0.61109   0.78177   0.59818   0.00000  Uiso   1.00
N4632  N     0.61224   0.80338   0.64186   0.00000  Uiso   1.00
H4633  H     0.59432   0.76889   0.55542   0.00000  Uiso   1.00
H4634  H     0.59770   0.83257   0.68415   0.00000  Uiso   1.00
H4635  H     0.54849   0.76398   0.57671   0.00000  Uiso   1.00
H4636  H     0.57158   0.76152   0.56742   0.00000  Uiso   1.00
C4637  C     0.72298   0.90674   0.58448   0.00000  Uiso   1.00
C4638  C     0.72483   0.94171   0.65517   0.00000  Uiso   1.00
C4639  C     0.71602   0.92833   0.61971   0.00000  Uiso   1.00
C4640  C     0.70122   0.93604   0.61948   0.00000  Uiso   1.00
C4641  C     0.67918   0.90868   0.59631   0.00000  Uiso   1.00
C4642  C     0.69289   0.90721   0.59080   0.00000  Uiso   1.00
N4643  N     0.73609   0.90677   0.59818   0.00000  Uiso   1.00
N4644  N     0.73724   0.92838   0.64186   0.00000  Uiso   1.00
H4645  H     0.71932   0.89389   0.55542   0.00000  Uiso   1.00
H4646  H     0.72270   0.95757   0.68415   0.00000  Uiso   1.00
H4647  H     0.67349   0.88898   0.57671   0.00000  Uiso   1.00
H4648  H     0.69658   0.88652   0.56742   0.00000  Uiso   1.00
C4649  C     0.59798   0.96826   0.70948   0.00000  Uiso   1.00
C4650  C     0.59983   0.93329   0.53017   0.00000  Uiso   1.00
C4651  C     0.59102   0.94667   0.74471   0.00000  Uiso   1.00
C4652  C     0.57622   0.93896   0.74448   0.00000  Uiso   1.00
C4653  C     0.55418   0.96632   0.72131   0.00000  Uiso   1.00
C4654  C     0.56789   0.96779   0.71580   0.00000  Uiso   1.00
N4655  N     0.61109   0.96823   0.72318   0.00000  Uiso   1.00
N4656  N     0.61224   0.94662   0.51686   0.00000  Uiso   1.00
H4657  H     0.59432   0.98111   0.68042   0.00000  Uiso   1.00
H4658  H     0.59770   0.91743   0.55915   0.00000  Uiso   1.00
H4659  H     0.54849   0.98602   0.70171   0.00000  Uiso   1.00
H4660  H     0.57158   0.98848   0.69242   0.00000  Uiso   1.00
C4661  C     0.72298   0.84326   0.70948   0.00000  Uiso   1.00
C4662  C     0.72483   0.80829   0.53017   0.00000  Uiso   1.00
C4663  C     0.71602   0.82167   0.74471   0.00000  Uiso   1.00
C4664  C     0.70122   0.81396   0.74448   0.00000  Uiso   1.00
C4665  C     0.67918   0.84132   0.72131   0.00000  Uiso   1.00
C4666  C     0.69289   0.84279   0.71580   0.00000  Uiso   1.00
N4667  N     0.73609   0.84323   0.72318   0.00000  Uiso   1.00
N4668  N     0.73724   0.82162   0.51686   0.00000  Uiso   1.00
H4669  H     0.71932   0.85611   0.68042   0.00000  Uiso   1.00
H4670  H     0.72270   0.79243   0.55915   0.00000  Uiso   1.00
H4671  H     0.67349   0.86102   0.70171   0.00000  Uiso   1.00
H4672  H     0.69658   0.86348   0.69242   0.00000  Uiso   1.00
C4673  C     0.65202   0.96826   0.66552   0.00000  Uiso   1.00
C4674  C     0.65017   0.93329   0.59483   0.00000  Uiso   1.00
C4675  C     0.65898   0.94667   0.63029   0.00000  Uiso   1.00
C4676  C     0.67378   0.93896   0.63052   0.00000  Uiso   1.00
C4677  C     0.69582   0.96632   0.65369   0.00000  Uiso   1.00
C4678  C     0.68211   0.96779   0.65920   0.00000  Uiso   1.00
N4679  N     0.63891   0.96823   0.65182   0.00000  Uiso   1.00
N4680  N     0.63776   0.94662   0.60814   0.00000  Uiso   1.00
H4681  H     0.65568   0.98111   0.69458   0.00000  Uiso   1.00
H4682  H     0.65230   0.91743   0.56585   0.00000  Uiso   1.00
H4683  H     0.70151   0.98602   0.67329   0.00000  Uiso   1.00
H4684  H     0.67842   0.98848   0.68258   0.00000  Uiso   1.00
C4685  C     0.52702   0.84326   0.66552   0.00000  Uiso   1.00
C4686  C     0.52517   0.80829   0.59483   0.00000  Uiso   1.00
C4687  C     0.53398   0.82167   0.63029   0.00000  Uiso   1.00
C4688  C     0.54878   0.81396   0.63052   0.00000  Uiso   1.00
C4689  C     0.57082   0.84132   0.65369   0.00000  Uiso   1.00
C4690  C     0.55711   0.84279   0.65920   0.00000  Uiso   1.00
N4691  N     0.51391   0.84323   0.65182   0.00000  Uiso   1.00
N4692  N     0.51276   0.82162   0.60814   0.00000  Uiso   1.00
H4693  H     0.53068   0.85611   0.69458   0.00000  Uiso   1.00
H4694  H     0.52730   0.79243   0.56585   0.00000  Uiso   1.00
H4695  H     0.57651   0.86102   0.67329   0.00000  Uiso   1.00
H4696  H     0.55342   0.86348   0.68258   0.00000  Uiso   1.00
Fe4697 Fe    0.62500   0.98961   0.56250   0.00000  Uiso   1.00
Fe4698 Fe    0.50000   0.86461   0.56250   0.00000  Uiso   1.00
Fe4699 Fe    0.62500   0.76039   0.68750   0.00000  Uiso   1.00
Fe4700 Fe    0.50000   0.88539   0.68750   0.00000  Uiso   1.00
C4701  C     0.90202   0.78174   0.54052   0.00000  Uiso   1.00
C4702  C     0.90017   0.81671   0.71983   0.00000  Uiso   1.00
C4703  C     0.90898   0.80333   0.50529   0.00000  Uiso   1.00
C4704  C     0.92378   0.81104   0.50552   0.00000  Uiso   1.00
C4705  C     0.94582   0.78368   0.52869   0.00000  Uiso   1.00
C4706  C     0.93211   0.78221   0.53420   0.00000  Uiso   1.00
N4707  N     0.88891   0.78177   0.52682   0.00000  Uiso   1.00
N4708  N     0.88776   0.80338   0.73314   0.00000  Uiso   1.00
H4709  H     0.90568   0.76889   0.56958   0.00000  Uiso   1.00
H4710  H     0.90230   0.83257   0.69085   0.00000  Uiso   1.00
H4711  H     0.95151   0.76398   0.54829   0.00000  Uiso   1.00
H4712  H     0.92842   0.76152   0.55758   0.00000  Uiso   1.00
C4713  C     0.77702   0.90674   0.54052   0.00000  Uiso   1.00
C4714  C     0.77517   0.94171   0.71983   0.00000  Uiso   1.00
C4715  C     0.78398   0.92833   0.50529   0.00000  Uiso   1.00
C4716  C     0.79878   0.93604   0.50552   0.00000  Uiso   1.00
C4717  C     0.82082   0.90868   0.52869   0.00000  Uiso   1.00
C4718  C     0.80711   0.90721   0.53420   0.00000  Uiso   1.00
N4719  N     0.76391   0.90677   0.52682   0.00000  Uiso   1.00
N4720  N     0.76276   0.92838   0.73314   0.00000  Uiso   1.00
H4721  H     0.78068   0.89389   0.56958   0.00000  Uiso   1.00
H4722  H     0.77730   0.95757   0.69085   0.00000  Uiso   1.00
H4723  H     0.82651   0.88898   0.54829   0.00000  Uiso   1.00
H4724  H     0.80342   0.88652   0.55758   0.00000  Uiso   1.00
C4725  C     0.84798   0.78174   0.58448   0.00000  Uiso   1.00
C4726  C     0.84983   0.81671   0.65517   0.00000  Uiso   1.00
C4727  C     0.84102   0.80333   0.61971   0.00000  Uiso   1.00
C4728  C     0.82622   0.81104   0.61948   0.00000  Uiso   1.00
C4729  C     0.80418   0.78368   0.59631   0.00000  Uiso   1.00
C4730  C     0.81789   0.78221   0.59080   0.00000  Uiso   1.00
N4731  N     0.86109   0.78177   0.59818   0.00000  Uiso   1.00
N4732  N     0.86224   0.80338   0.64186   0.00000  Uiso   1.00
H4733  H     0.84432   0.76889   0.55542   0.00000  Uiso   1.00
H4734  H     0.84770   0.83257   0.68415   0.00000  Uiso   1.00
H4735  H     0.79849   0.76398   0.57671   0.00000  Uiso   1.00
H4736  H     0.82158   0.76152   0.56742   0.00000  Uiso   1.00
C4737  C     0.97298   0.90674   0.58448   0.00000  Uiso   1.00
C4738  C     0.97483   0.94171   0.65517   0.00000  Uiso   1.00
C4739  C     0.96602   0.92833   0.61971   0.00000  Uiso   1.00
C4740  C     0.95122   0.93604   0.61948   0.00000  Uiso   1.00
C4741  C     0.92918   0.90868   0.59631   0.00000  Uiso   1.00
C4742  C     0.94289   0.90721   0.59080   0.00000  Uiso   1.00
N4743  N     0.98609   0.90677   0.59818   0.00000  Uiso   1.00
N4744  N     0.98724   0.92838   0.64186   0.00000  Uiso   1.00
H4745  H     0.96932   0.89389   0.55542   0.00000  Uiso   1.00
H4746  H     0.97270   0.95757   0.68415   0.00000  Uiso   1.00
H4747  H     0.92349   0.88898   0.57671   0.00000  Uiso   1.00
H4748  H     0.94658   0.88652   0.56742   0.00000  Uiso   1.00
C4749  C     0.84798   0.96826   0.70948   0.00000  Uiso   1.00
C4750  C     0.84983   0.93329   0.53017   0.00000  Uiso   1.00
C4751  C     0.84102   0.94667   0.74471   0.00000  Uiso   1.00
C4752  C     0.82622   0.93896   0.74448   0.00000  Uiso   1.00
C4753  C     0.80418   0.96632   0.72131   0.00000  Uiso   1.00
C4754  C     0.81789   0.96779   0.71580   0.00000  Uiso   1.00
N4755  N     0.86109   0.96823   0.72318   0.00000  Uiso   1.00
N4756  N     0.86224   0.94662   0.51686   0.00000  Uiso   1.00
H4757  H     0.84432   0.98111   0.68042   0.00000  Uiso   1.00
H4758  H     0.84770   0.91743   0.55915   0.00000  Uiso   1.00
H4759  H     0.79849   0.98602   0.70171   0.00000  Uiso   1.00
H4760  H     0.82158   0.98848   0.69242   0.00000  Uiso   1.00
C4761  C     0.97298   0.84326   0.70948   0.00000  Uiso   1.00
C4762  C     0.97483   0.80829   0.53017   0.00000  Uiso   1.00
C4763  C     0.96602   0.82167   0.74471   0.00000  Uiso   1.00
C4764  C     0.95122   0.81396   0.74448   0.00000  Uiso   1.00
C4765  C     0.92918   0.84132   0.72131   0.00000  Uiso   1.00
C4766  C     0.94289   0.84279   0.71580   0.00000  Uiso   1.00
N4767  N     0.98609   0.84323   0.72318   0.00000  Uiso   1.00
N4768  N     0.98724   0.82162   0.51686   0.00000  Uiso   1.00
H4769  H     0.96932   0.85611   0.68042   0.00000  Uiso   1.00
H4770  H     0.97270   0.79243   0.55915   0.00000  Uiso   1.00
H4771  H     0.92349   0.86102   0.70171   0.00000  Uiso   1.00
H4772  H     0.94658   0.86348   0.69242   0.00000  Uiso   1.00
C4773  C     0.90202   0.96826   0.66552   0.00000  Uiso   1.00
C4774  C     0.90017   0.93329   0.59483   0.00000  Uiso   1.00
C4775  C     0.90898   0.94667   0.63029   0.00000  Uiso   1.00
C4776  C     0.92378   0.93896   0.63052   0.00000  Uiso   1.00
C4777  C     0.94582   0.96632   0.65369   0.00000  Uiso   1.00
C4778  C     0.93211   0.96779   0.65920   0.00000  Uiso   1.00
N4779  N     0.88891   0.96823   0.65182   0.00000  Uiso   1.00
N4780  N     0.88776   0.94662   0.60814   0.00000  Uiso   1.00
H4781  H     0.90568   0.98111   0.69458   0.00000  Uiso   1.00
H4782  H     0.90230   0.91743   0.56585   0.00000  Uiso   1.00
H4783  H     0.95151   0.98602   0.67329   0.00000  Uiso   1.00
H4784  H     0.92842   0.98848   0.68258   0.00000  Uiso   1.00
C4785  C     0.77702   0.84326   0.66552   0.00000  Uiso   1.00
C4786  C     0.77517   0.80829   0.59483   0.00000  Uiso   1.00
C4787  C     0.78398   0.82167   0.63029   0.00000  Uiso   1.00
C4788  C     0.79878   0.81396   0.63052   0.00000  Uiso   1.00
C4789  C     0.82082   0.84132   0.65369   0.00000  Uiso   1.00
C4790  C     0.80711   0.84279   0.65920   0.00000  Uiso   1.00
N4791  N     0.76391   0.84323   0.65182   0.00000  Uiso   1.00
N4792  N     0.76276   0.82162   0.60814   0.00000  Uiso   1.00
H4793  H     0.78068   0.85611   0.69458   0.00000  Uiso   1.00
H4794  H     0.77730   0.79243   0.56585   0.00000  Uiso   1.00
H4795  H     0.82651   0.86102   0.67329   0.00000  Uiso   1.00
H4796  H     0.80342   0.86348   0.68258   0.00000  Uiso   1.00
Fe4797 Fe    0.87500   0.98961   0.56250   0.00000  Uiso   1.00
Fe4798 Fe    0.75000   0.86461   0.56250   0.00000  Uiso   1.00
Fe4799 Fe    0.87500   0.76039   0.68750   0.00000  Uiso   1.00
Fe4800 Fe    0.75000   0.88539   0.68750   0.00000  Uiso   1.00
C4801  C     0.15202   0.03174   0.79052   0.00000  Uiso   1.00
C4802  C     0.15017   0.06671   0.96983   0.00000  Uiso   1.00
C4803  C     0.15898   0.05333   0.75529   0.00000  Uiso   1.00
C4804  C     0.17378   0.06104   0.75552   0.00000  Uiso   1.00
C4805  C     0.19582   0.03368   0.77869   0.00000  Uiso   1.00
C4806  C     0.18211   0.03221   0.78420   0.00000  Uiso   1.00
N4807  N     0.13891   0.03177   0.77682   0.00000  Uiso   1.00
N4808  N     0.13776   0.05338   0.98314   0.00000  Uiso   1.00
H4809  H     0.15568   0.01889   0.81958   0.00000  Uiso   1.00
H4810  H     0.15230   0.08257   0.94085   0.00000  Uiso   1.00
H4811  H     0.20151   0.01398   0.79829   0.00000  Uiso   1.00
H4812  H     0.17842   0.01152   0.80758   0.00000  Uiso   1.00
C4813  C     0.02702   0.15674   0.79052   0.00000  Uiso   1.00
C4814  C     0.02517   0.19171   0.96983   0.00000  Uiso   1.00
C4815  C     0.03398   0.17833   0.75529   0.00000  Uiso   1.00
C4816  C     0.04878   0.18604   0.75552   0.00000  Uiso   1.00
C4817  C     0.07082   0.15868   0.77869   0.00000  Uiso   1.00
C4818  C     0.05711   0.15721   0.78420   0.00000  Uiso   1.00
N4819  N     0.01391   0.15677   0.77682   0.00000  Uiso   1.00
N4820  N     0.01276   0.17838   0.98314   0.00000  Uiso   1.00
H4821  H     0.03068   0.14389   0.81958   0.00000  Uiso   1.00
H4822  H     0.02730   0.20757   0.94085   0.00000  Uiso   1.00
H4823  H     0.07651   0.13898   0.79829   0.00000  Uiso   1.00
H4824  H     0.05342   0.13652   0.80758   0.00000  Uiso   1.00
C4825  C     0.09798   0.03174   0.83448   0.00000  Uiso   1.00
C4826  C     0.09983   0.06671   0.90517   0.00000  Uiso   1.00
C4827  C     0.09102   0.05333   0.86971   0.00000  Uiso   1.00
C4828  C     0.07622   0.06104   0.86948   0.00000  Uiso   1.00
C4829  C     0.05418   0.03368   0.84631   0.00000  Uiso   1.00
C4830  C     0.06789   0.03221   0.84080   0.00000  Uiso   1.00
N4831  N     0.11109   0.03177   0.84818   0.00000  Uiso   1.00
N4832  N     0.11224   0.05338   0.89186   0.00000  Uiso   1.00
H4833  H     0.09432   0.01889   0.80542   0.00000  Uiso   1.00
H4834  H     0.09770   0.08257   0.93415   0.00000  Uiso   1.00
H4835  H     0.04849   0.01398   0.82671   0.00000  Uiso   1.00
H4836  H     0.07158   0.01152   0.81742   0.00000  Uiso   1.00
C4837  C     0.22298   0.15674   0.83448   0.00000  Uiso   1.00
C4838  C     0.22483   0.19171   0.90517   0.00000  Uiso   1.00
C4839  C     0.21602   0.17833   0.86971   0.00000  Uiso   1.00
C4840  C     0.20122   0.18604   0.86948   0.00000  Uiso   1.00
C4841  C     0.17918   0.15868   0.84631   0.00000  Uiso   1.00
C4842  C     0.19289   0.15721   0.84080   0.00000  Uiso   1.00
N4843  N     0.23609   0.15677   0.84818   0.00000  Uiso   1.00
N4844  N     0.23724   0.17838   0.89186   0.00000  Uiso   1.00
H4845  H     0.21932   0.14389   0.80542   0.00000  Uiso   1.00
H4846  H     0.22270   0.20757   0.93415   0.00000  Uiso   1.00
H4847  H     0.17349   0.13898   0.82671   0.00000  Uiso   1.00
H4848  H     0.19658   0.13652   0.81742   0.00000  Uiso   1.00
C4849  C     0.09798   0.21826   0.95948   0.00000  Uiso   1.00
C4850  C     0.09983   0.18329   0.78017   0.00000  Uiso   1.00
C4851  C     0.09102   0.19667   0.99471   0.00000  Uiso   1.00
C4852  C     0.07622   0.18896   0.99448   0.00000  Uiso   1.00
C4853  C     0.05418   0.21632   0.97131   0.00000  Uiso   1.00
C4854  C     0.06789   0.21779   0.96580   0.00000  Uiso   1.00
N4855  N     0.11109   0.21823   0.97318   0.00000  Uiso   1.00
N4856  N     0.11224   0.19662   0.76686   0.00000  Uiso   1.00
H4857  H     0.09432   0.23111   0.93042   0.00000  Uiso   1.00
H4858  H     0.09770   0.16743   0.80915   0.00000  Uiso   1.00
H4859  H     0.04849   0.23602   0.95171   0.00000  Uiso   1.00
H4860  H     0.07158   0.23848   0.94242   0.00000  Uiso   1.00
C4861  C     0.22298   0.09326   0.95948   0.00000  Uiso   1.00
C4862  C     0.22483   0.05829   0.78017   0.00000  Uiso   1.00
C4863  C     0.21602   0.07167   0.99471   0.00000  Uiso   1.00
C4864  C     0.20122   0.06396   0.99448   0.00000  Uiso   1.00
C4865  C     0.17918   0.09132   0.97131   0.00000  Uiso   1.00
C4866  C     0.19289   0.09279   0.96580   0.00000  Uiso   1.00
N4867  N     0.23609   0.09323   0.97318   0.00000  Uiso   1.00
N4868  N     0.23724   0.07162   0.76686   0.00000  Uiso   1.00
H4869  H     0.21932   0.10611   0.93042   0.00000  Uiso   1.00
H4870  H     0.22270   0.04243   0.80915   0.00000  Uiso   1.00
H4871  H     0.17349   0.11102   0.95171   0.00000  Uiso   1.00
H4872  H     0.19658   0.11348   0.94242   0.00000  Uiso   1.00
C4873  C     0.15202   0.21826   0.91552   0.00000  Uiso   1.00
C4874  C     0.15017   0.18329   0.84483   0.00000  Uiso   1.00
C4875  C     0.15898   0.19667   0.88029   0.00000  Uiso   1.00
C4876  C     0.17378   0.18896   0.88052   0.00000  Uiso   1.00
C4877  C     0.19582   0.21632   0.90369   0.00000  Uiso   1.00
C4878  C     0.18211   0.21779   0.90920   0.00000  Uiso   1.00
N4879  N     0.13891   0.21823   0.90182   0.00000  Uiso   1.00
N4880  N     0.13776   0.19662   0.85814   0.00000  Uiso   1.00
H4881  H     0.15568   0.23111   0.94458   0.00000  Uiso   1.00
H4882  H     0.15230   0.16743   0.81585   0.00000  Uiso   1.00
H4883  H     0.20151   0.23602   0.92329   0.00000  Uiso   1.00
H4884  H     0.17842   0.23848   0.93258   0.00000  Uiso   1.00
C4885  C     0.02702   0.09326   0.91552   0.00000  Uiso   1.00
C4886  C     0.02517   0.05829   0.84483   0.00000  Uiso   1.00
C4887  C     0.03398   0.07167   0.88029   0.00000  Uiso   1.00
C4888  C     0.04878   0.06396   0.88052   0.00000  Uiso   1.00
C4889  C     0.07082   0.09132   0.90369   0.00000  Uiso   1.00
C4890  C     0.05711   0.09279   0.90920   0.00000  Uiso   1.00
N4891  N     0.01391   0.09323   0.90182   0.00000  Uiso   1.00
N4892  N     0.01276   0.07162   0.85814   0.00000  Uiso   1.00
H4893  H     0.03068   0.10611   0.94458   0.00000  Uiso   1.00
H4894  H     0.02730   0.04243   0.81585   0.00000  Uiso   1.00
H4895  H     0.07651   0.11102   0.92329   0.00000  Uiso   1.00
H4896  H     0.05342   0.11348   0.93258   0.00000  Uiso   1.00
Fe4897 Fe    0.12500   0.23961   0.81250   0.00000  Uiso   1.00
Fe4898 Fe    0.00000   0.11461   0.81250   0.00000  Uiso   1.00
Fe4899 Fe    0.12500   0.01039   0.93750   0.00000  Uiso   1.00
Fe4900 Fe   -0.00000   0.13539   0.93750   0.00000  Uiso   1.00
C4901  C     0.40202   0.03174   0.79052   0.00000  Uiso   1.00
C4902  C     0.40017   0.06671   0.96983   0.00000  Uiso   1.00
C4903  C     0.40898   0.05333   0.75529   0.00000  Uiso   1.00
C4904  C     0.42378   0.06104   0.75552   0.00000  Uiso   1.00
C4905  C     0.44582   0.03368   0.77869   0.00000  Uiso   1.00
C4906  C     0.43211   0.03221   0.78420   0.00000  Uiso   1.00
N4907  N     0.38891   0.03177   0.77682   0.00000  Uiso   1.00
N4908  N     0.38776   0.05338   0.98314   0.00000  Uiso   1.00
H4909  H     0.40568   0.01889   0.81958   0.00000  Uiso   1.00
H4910  H     0.40230   0.08257   0.94085   0.00000  Uiso   1.00
H4911  H     0.45151   0.01398   0.79829   0.00000  Uiso   1.00
H4912  H     0.42842   0.01152   0.80758   0.00000  Uiso   1.00
C4913  C     0.27702   0.15674   0.79052   0.00000  Uiso   1.00
C4914  C     0.27517   0.19171   0.96983   0.00000  Uiso   1.00
C4915  C     0.28398   0.17833   0.75529   0.00000  Uiso   1.00
C4916  C     0.29878   0.18604   0.75552   0.00000  Uiso   1.00
C4917  C     0.32082   0.15868   0.77869   0.00000  Uiso   1.00
C4918  C     0.30711   0.15721   0.78420   0.00000  Uiso   1.00
N4919  N     0.26391   0.15677   0.77682   0.00000  Uiso   1.00
N4920  N     0.26276   0.17838   0.98314   0.00000  Uiso   1.00
H4921  H     0.28068   0.14389   0.81958   0.00000  Uiso   1.00
H4922  H     0.27730   0.20757   0.94085   0.00000  Uiso   1.00
H4923  H     0.32651   0.13898   0.79829   0.00000  Uiso   1.00
H4924  H     0.30342   0.13652   0.80758   0.00000  Uiso   1.00
C4925  C     0.34798   0.03174   0.83448   0.00000  Uiso   1.00
C4926  C     0.34983   0.06671   0.90517   0.00000  Uiso   1.00
C4927  C     0.34102   0.05333   0.86971   0.00000  Uiso   1.00
C4928  C     0.32622   0.06104   0.86948   0.00000  Uiso   1.00
C4929  C     0.30418   0.03368   0.84631   0.00000  Uiso   1.00
C4930  C     0.31789   0.03221   0.84080   0.00000  Uiso   1.00
N4931  N     0.36109   0.03177   0.84818   0.00000  Uiso   1.00
N4932  N     0.36224   0.05338   0.89186   0.00000  Uiso   1.00
H4933  H     0.34432   0.01889   0.80542   0.00000  Uiso   1.00
H4934  H     0.34770   0.08257   0.93415   0.00000  Uiso   1.00
H4935  H     0.29849   0.01398   0.82671   0.00000  Uiso   1.00
H4936  H     0.32158   0.01152   0.81742   0.00000  Uiso   1.00
C4937  C     0.47298   0.15674   0.83448   0.00000  Uiso   1.00
C4938  C     0.47483   0.19171   0.90517   0.00000  Uiso   1.00
C4939  C     0.46602   0.17833   0.86971   0.00000  Uiso   1.00
C4940  C     0.45122   0.18604   0.86948   0.00000  Uiso   1.00
C4941  C     0.42918   0.15868   0.84631   0.00000  Uiso   1.00
C4942  C     0.44289   0.15721   0.84080   0.00000  Uiso   1.00
N4943  N     0.48609   0.15677   0.84818   0.00000  Uiso   1.00
N4944  N     0.48724   0.17838   0.89186   0.00000  Uiso   1.00
H4945  H     0.46932   0.14389   0.80542   0.00000  Uiso   1.00
H4946  H     0.47270   0.20757   0.93415   0.00000  Uiso   1.00
H4947  H     0.42349   0.13898   0.82671   0.00000  Uiso   1.00
H4948  H     0.44658   0.13652   0.81742   0.00000  Uiso   1.00
C4949  C     0.34798   0.21826   0.95948   0.00000  Uiso   1.00
C4950  C     0.34983   0.18329   0.78017   0.00000  Uiso   1.00
C4951  C     0.34102   0.19667   0.99471   0.00000  Uiso   1.00
C4952  C     0.32622   0.18896   0.99448   0.00000  Uiso   1.00
C4953  C     0.30418   0.21632   0.97131   0.00000  Uiso   1.00
C4954  C     0.31789   0.21779   0.96580   0.00000  Uiso   1.00
N4955  N     0.36109   0.21823   0.97318   0.00000  Uiso   1.00
N4956  N     0.36224   0.19662   0.76686   0.00000  Uiso   1.00
H4957  H     0.34432   0.23111   0.93042   0.00000  Uiso   1.00
H4958  H     0.34770   0.16743   0.80915   0.00000  Uiso   1.00
H4959  H     0.29849   0.23602   0.95171   0.00000  Uiso   1.00
H4960  H     0.32158   0.23848   0.94242   0.00000  Uiso   1.00
C4961  C     0.47298   0.09326   0.95948   0.00000  Uiso   1.00
C4962  C     0.47483   0.05829   0.78017   0.00000  Uiso   1.00
C4963  C     0.46602   0.07167   0.99471   0.00000  Uiso   1.00
C4964  C     0.45122   0.06396   0.99448   0.00000  Uiso   1.00
C4965  C     0.42918   0.09132   0.97131   0.00000  Uiso   1.00
C4966  C     0.44289   0.09279   0.96580   0.00000  Uiso   1.00
N4967  N     0.48609   0.09323   0.97318   0.00000  Uiso   1.00
N4968  N     0.48724   0.07162   0.76686   0.00000  Uiso   1.00
H4969  H     0.46932   0.10611   0.93042   0.00000  Uiso   1.00
H4970  H     0.47270   0.04243   0.80915   0.00000  Uiso   1.00
H4971  H     0.42349   0.11102   0.95171   0.00000  Uiso   1.00
H4972  H     0.44658   0.11348   0.94242   0.00000  Uiso   1.00
C4973  C     0.40202   0.21826   0.91552   0.00000  Uiso   1.00
C4974  C     0.40017   0.18329   0.84483   0.00000  Uiso   1.00
C4975  C     0.40898   0.19667   0.88029   0.00000  Uiso   1.00
C4976  C     0.42378   0.18896   0.88052   0.00000  Uiso   1.00
C4977  C     0.44582   0.21632   0.90369   0.00000  Uiso   1.00
C4978  C     0.43211   0.21779   0.90920   0.00000  Uiso   1.00
N4979  N     0.38891   0.21823   0.90182   0.00000  Uiso   1.00
N4980  N     0.38776   0.19662   0.85814   0.00000  Uiso   1.00
H4981  H     0.40568   0.23111   0.94458   0.00000  Uiso   1.00
H4982  H     0.40230   0.16743   0.81585   0.00000  Uiso   1.00
H4983  H     0.45151   0.23602   0.92329   0.00000  Uiso   1.00
H4984  H     0.42842   0.23848   0.93258   0.00000  Uiso   1.00
C4985  C     0.27702   0.09326   0.91552   0.00000  Uiso   1.00
C4986  C     0.27517   0.05829   0.84483   0.00000  Uiso   1.00
C4987  C     0.28398   0.07167   0.88029   0.00000  Uiso   1.00
C4988  C     0.29878   0.06396   0.88052   0.00000  Uiso   1.00
C4989  C     0.32082   0.09132   0.90369   0.00000  Uiso   1.00
C4990  C     0.30711   0.09279   0.90920   0.00000  Uiso   1.00
N4991  N     0.26391   0.09323   0.90182   0.00000  Uiso   1.00
N4992  N     0.26276   0.07162   0.85814   0.00000  Uiso   1.00
H4993  H     0.28068   0.10611   0.94458   0.00000  Uiso   1.00
H4994  H     0.27730   0.04243   0.81585   0.00000  Uiso   1.00
H4995  H     0.32651   0.11102   0.92329   0.00000  Uiso   1.00
H4996  H     0.30342   0.11348   0.93258   0.00000  Uiso   1.00
Fe4997 Fe    0.37500   0.23961   0.81250   0.00000  Uiso   1.00
Fe4998 Fe    0.25000   0.11461   0.81250   0.00000  Uiso   1.00
Fe4999 Fe    0.37500   0.01039   0.93750   0.00000  Uiso   1.00
Fe5000 Fe    0.25000   0.13539   0.93750   0.00000  Uiso   1.00
C5001  C     0.65202   0.03174   0.79052   0.00000  Uiso   1.00
C5002  C     0.65017   0.06671   0.96983   0.00000  Uiso   1.00
C5003  C     0.65898   0.05333   0.75529   0.00000  Uiso   1.00
C5004  C     0.67378   0.06104   0.75552   0.00000  Uiso   1.00
C5005  C     0.69582   0.03368   0.77869   0.00000  Uiso   1.00
C5006  C     0.68211   0.03221   0.78420   0.00000  Uiso   1.00
N5007  N     0.63891   0.03177   0.77682   0.00000  Uiso   1.00
N5008  N     0.63776   0.05338   0.98314   0.00000  Uiso   1.00
H5009  H     0.65568   0.01889   0.81958   0.00000  Uiso   1.00
H5010  H     0.65230   0.08257   0.94085   0.00000  Uiso   1.00
H5011  H     0.70151   0.01398   0.79829   0.00000  Uiso   1.00
H5012  H     0.67842   0.01152   0.80758   0.00000  Uiso   1.00
C5013  C     0.52702   0.15674   0.79052   0.00000  Uiso   1.00
C5014  C     0.52517   0.19171   0.96983   0.00000  Uiso   1.00
C5015  C     0.53398   0.17833   0.75529   0.00000  Uiso   1.00
C5016  C     0.54878   0.18604   0.75552   0.00000  Uiso   1.00
C5017  C     0.57082   0.15868   0.77869   0.00000  Uiso   1.00
C5018  C     0.55711   0.15721   0.78420   0.00000  Uiso   1.00
N5019  N     0.51391   0.15677   0.77682   0.00000  Uiso   1.00
N5020  N     0.51276   0.17838   0.98314   0.00000  Uiso   1.00
H5021  H     0.53068   0.14389   0.81958   0.00000  Uiso   1.00
H5022  H     0.52730   0.20757   0.94085   0.00000  Uiso   1.00
H5023  H     0.57651   0.13898   0.79829   0.00000  Uiso   1.00
H5024  H     0.55342   0.13652   0.80758   0.00000  Uiso   1.00
C5025  C     0.59798   0.03174   0.83448   0.00000  Uiso   1.00
C5026  C     0.59983   0.06671   0.90517   0.00000  Uiso   1.00
C5027  C     0.59102   0.05333   0.86971   0.00000  Uiso   1.00
C5028  C     0.57622   0.06104   0.86948   0.00000  Uiso   1.00
C5029  C     0.55418   0.03368   0.84631   0.00000  Uiso   1.00
C5030  C     0.56789   0.03221   0.84080   0.00000  Uiso   1.00
N5031  N     0.61109   0.03177   0.84818   0.00000  Uiso   1.00
N5032  N     0.61224   0.05338   0.89186   0.00000  Uiso   1.00
H5033  H     0.59432   0.01889   0.80542   0.00000  Uiso   1.00
H5034  H     0.59770   0.08257   0.93415   0.00000  Uiso   1.00
H5035  H     0.54849   0.01398   0.82671   0.00000  Uiso   1.00
H5036  H     0.57158   0.01152   0.81742   0.00000  Uiso   1.00
C5037  C     0.72298   0.15674   0.83448   0.00000  Uiso   1.00
C5038  C     0.72483   0.19171   0.90517   0.00000  Uiso   1.00
C5039  C     0.71602   0.17833   0.86971   0.00000  Uiso   1.00
C5040  C     0.70122   0.18604   0.86948   0.00000  Uiso   1.00
C5041  C     0.67918   0.15868   0.84631   0.00000  Uiso   1.00
C5042  C     0.69289   0.15721   0.84080   0.00000  Uiso   1.00
N5043  N     0.73609   0.15677   0.84818   0.00000  Uiso   1.00
N5044  N     0.73724   0.17838   0.89186   0.00000  Uiso   1.00
H5045  H     0.71932   0.14389   0.80542   0.00000  Uiso   1.00
H5046  H     0.72270   0.20757   0.93415   0.00000  Uiso   1.00
H5047  H     0.67349   0.13898   0.82671   0.00000  Uiso   1.00
H5048  H     0.69658   0.13652   0.81742   0.00000  Uiso   1.00
C5049  C     0.59798   0.21826   0.95948   0.00000  Uiso   1.00
C5050  C     0.59983   0.18329   0.78017   0.00000  Uiso   1.00
C5051  C     0.59102   0.19667   0.99471   0.00000  Uiso   1.00
C5052  C     0.57622   0.18896   0.99448   0.00000  Uiso   1.00
C5053  C     0.55418   0.21632   0.97131   0.00000  Uiso   1.00
C5054  C     0.56789   0.21779   0.96580   0.00000  Uiso   1.00
N5055  N     0.61109   0.21823   0.97318   0.00000  Uiso   1.00
N5056  N     0.61224   0.19662   0.76686   0.00000  Uiso   1.00
H5057  H     0.59432   0.23111   0.93042   0.00000  Uiso   1.00
H5058  H     0.59770   0.16743   0.80915   0.00000  Uiso   1.00
H5059  H     0.54849   0.23602   0.95171   0.00000  Uiso   1.00
H5060  H     0.57158   0.23848   0.94242   0.00000  Uiso   1.00
C5061  C     0.72298   0.09326   0.95948   0.00000  Uiso   1.00
C5062  C     0.72483   0.05829   0.78017   0.00000  Uiso   1.00
C5063  C     0.71602   0.07167   0.99471   0.00000  Uiso   1.00
C5064  C     0.70122   0.06396   0.99448   0.00000  Uiso   1.00
C5065  C     0.67918   0.09132   0.97131   0.00000  Uiso   1.00
C5066  C     0.69289   0.09279   0.96580   0.00000  Uiso   1.00
N5067  N     0.73609   0.09323   0.97318   0.00000  Uiso   1.00
N5068  N     0.73724   0.07162   0.76686   0.00000  Uiso   1.00
H5069  H     0.71932   0.10611   0.93042   0.00000  Uiso   1.00
H5070  H     0.72270   0.04243   0.80915   0.00000  Uiso   1.00
H5071  H     0.67349   0.11102   0.95171   0.00000  Uiso   1.00
H5072  H     0.69658   0.11348   0.94242   0.00000  Uiso   1.00
C5073  C     0.65202   0.21826   0.91552   0.00000  Uiso   1.00
C5074  C     0.65017   0.18329   0.84483   0.00000  Uiso   1.00
C5075  C     0.65898   0.19667   0.88029   0.00000  Uiso   1.00
C5076  C     0.67378   0.18896   0.88052   0.00000  Uiso   1.00
C5077  C     0.69582   0.21632   0.90369   0.00000  Uiso   1.00
C5078  C     0.68211   0.21779   0.90920   0.00000  Uiso   1.00
N5079  N     0.63891   0.21823   0.90182   0.00000  Uiso   1.00
N5080  N     0.63776   0.19662   0.85814   0.00000  Uiso   1.00
H5081  H     0.65568   0.23111   0.94458   0.00000  Uiso   1.00
H5082  H     0.65230   0.16743   0.81585   0.00000  Uiso   1.00
H5083  H     0.70151   0.23602   0.92329   0.00000  Uiso   1.00
H5084  H     0.67842   0.23848   0.93258   0.00000  Uiso   1.00
C5085  C     0.52702   0.09326   0.91552   0.00000  Uiso   1.00
C5086  C     0.52517   0.05829   0.84483   0.00000  Uiso   1.00
C5087  C     0.53398   0.07167   0.88029   0.00000  Uiso   1.00
C5088  C     0.54878   0.06396   0.88052   0.00000  Uiso   1.00
C5089  C     0.57082   0.09132   0.90369   0.00000  Uiso   1.00
C5090  C     0.55711   0.09279   0.90920   0.00000  Uiso   1.00
N5091  N     0.51391   0.09323   0.90182   0.00000  Uiso   1.00
N5092  N     0.51276   0.07162   0.85814   0.00000  Uiso   1.00
H5093  H     0.53068   0.10611   0.94458   0.00000  Uiso   1.00
H5094  H     0.52730   0.04243   0.81585   0.00000  Uiso   1.00
H5095  H     0.57651   0.11102   0.92329   0.00000  Uiso   1.00
H5096  H     0.55342   0.11348   0.93258   0.00000  Uiso   1.00
Fe5097 Fe    0.62500   0.23961   0.81250   0.00000  Uiso   1.00
Fe5098 Fe    0.50000   0.11461   0.81250   0.00000  Uiso   1.00
Fe5099 Fe    0.62500   0.01039   0.93750   0.00000  Uiso   1.00
Fe5100 Fe    0.50000   0.13539   0.93750   0.00000  Uiso   1.00
C5101  C     0.90202   0.03174   0.79052   0.00000  Uiso   1.00
C5102  C     0.90017   0.06671   0.96983   0.00000  Uiso   1.00
C5103  C     0.90898   0.05333   0.75529   0.00000  Uiso   1.00
C5104  C     0.92378   0.06104   0.75552   0.00000  Uiso   1.00
C5105  C     0.94582   0.03368   0.77869   0.00000  Uiso   1.00
C5106  C     0.93211   0.03221   0.78420   0.00000  Uiso   1.00
N5107  N     0.88891   0.03177   0.77682   0.00000  Uiso   1.00
N5108  N     0.88776   0.05338   0.98314   0.00000  Uiso   1.00
H5109  H     0.90568   0.01889   0.81958   0.00000  Uiso   1.00
H5110  H     0.90230   0.08257   0.94085   0.00000  Uiso   1.00
H5111  H     0.95151   0.01398   0.79829   0.00000  Uiso   1.00
H5112  H     0.92842   0.01152   0.80758   0.00000  Uiso   1.00
C5113  C     0.77702   0.15674   0.79052   0.00000  Uiso   1.00
C5114  C     0.77517   0.19171   0.96983   0.00000  Uiso   1.00
C5115  C     0.78398   0.17833   0.75529   0.00000  Uiso   1.00
C5116  C     0.79878   0.18604   0.75552   0.00000  Uiso   1.00
C5117  C     0.82082   0.15868   0.77869   0.00000  Uiso   1.00
C5118  C     0.80711   0.15721   0.78420   0.00000  Uiso   1.00
N5119  N     0.76391   0.15677   0.77682   0.00000  Uiso   1.00
N5120  N     0.76276   0.17838   0.98314   0.00000  Uiso   1.00
H5121  H     0.78068   0.14389   0.81958   0.00000  Uiso   1.00
H5122  H     0.77730   0.20757   0.94085   0.00000  Uiso   1.00
H5123  H     0.82651   0.13898   0.79829   0.00000  Uiso   1.00
H5124  H     0.80342   0.13652   0.80758   0.00000  Uiso   1.00
C5125  C     0.84798   0.03174   0.83448   0.00000  Uiso   1.00
C5126  C     0.84983   0.06671   0.90517   0.00000  Uiso   1.00
C5127  C     0.84102   0.05333   0.86971   0.00000  Uiso   1.00
C5128  C     0.82622   0.06104   0.86948   0.00000  Uiso   1.00
C5129  C     0.80418   0.03368   0.84631   0.00000  Uiso   1.00
C5130  C     0.81789   0.03221   0.84080   0.00000  Uiso   1.00
N5131  N     0.86109   0.03177   0.84818   0.00000  Uiso   1.00
N5132  N     0.86224   0.05338   0.89186   0.00000  Uiso   1.00
H5133  H     0.84432   0.01889   0.80542   0.00000  Uiso   1.00
H5134  H     0.84770   0.08257   0.93415   0.00000  Uiso   1.00
H5135  H     0.79849   0.01398   0.82671   0.00000  Uiso   1.00
H5136  H     0.82158   0.01152   0.81742   0.00000  Uiso   1.00
C5137  C     0.97298   0.15674   0.83448   0.00000  Uiso   1.00
C5138  C     0.97483   0.19171   0.90517   0.00000  Uiso   1.00
C5139  C     0.96602   0.17833   0.86971   0.00000  Uiso   1.00
C5140  C     0.95122   0.18604   0.86948   0.00000  Uiso   1.00
C5141  C     0.92918   0.15868   0.84631   0.00000  Uiso   1.00
C5142  C     0.94289   0.15721   0.84080   0.00000  Uiso   1.00
N5143  N     0.98609   0.15677   0.84818   0.00000  Uiso   1.00
N5144  N     0.98724   0.17838   0.89186   0.00000  Uiso   1.00
H5145  H     0.96932   0.14389   0.80542   0.00000  Uiso   1.00
H5146  H     0.97270   0.20757   0.93415   0.00000  Uiso   1.00
H5147  H     0.92349   0.13898   0.82671   0.00000  Uiso   1.00
H5148  H     0.94658   0.13652   0.81742   0.00000  Uiso   1.00
C5149  C     0.84798   0.21826   0.95948   0.00000  Uiso   1.00
C5150  C     0.84983   0.18329   0.78017   0.00000  Uiso   1.00
C5151  C     0.84102   0.19667   0.99471   0.00000  Uiso   1.00
C5152  C     0.82622   0.18896   0.99448   0.00000  Uiso   1.00
C5153  C     0.80418   0.21632   0.97131   0.00000  Uiso   1.00
C5154  C     0.81789   0.21779   0.96580   0.00000  Uiso   1.00
N5155  N     0.86109   0.21823   0.97318   0.00000  Uiso   1.00
N5156  N     0.86224   0.19662   0.76686   0.00000  Uiso   1.00
H5157  H     0.84432   0.23111   0.93042   0.00000  Uiso   1.00
H5158  H     0.84770   0.16743   0.80915   0.00000  Uiso   1.00
H5159  H     0.79849   0.23602   0.95171   0.00000  Uiso   1.00
H5160  H     0.82158   0.23848   0.94242   0.00000  Uiso   1.00
C5161  C     0.97298   0.09326   0.95948   0.00000  Uiso   1.00
C5162  C     0.97483   0.05829   0.78017   0.00000  Uiso   1.00
C5163  C     0.96602   0.07167   0.99471   0.00000  Uiso   1.00
C5164  C     0.95122   0.06396   0.99448   0.00000  Uiso   1.00
C5165  C     0.92918   0.09132   0.97131   0.00000  Uiso   1.00
C5166  C     0.94289   0.09279   0.96580   0.00000  Uiso   1.00
N5167  N     0.98609   0.09323   0.97318   0.00000  Uiso   1.00
N5168  N     0.98724   0.07162   0.76686   0.00000  Uiso   1.00
H5169  H     0.96932   0.10611   0.93042   0.00000  Uiso   1.00
H5170  H     0.97270   0.04243   0.80915   0.00000  Uiso   1.00
H5171  H     0.92349   0.11102   0.95171   0.00000  Uiso   1.00
H5172  H     0.94658   0.11348   0.94242   0.00000  Uiso   1.00
C5173  C     0.90202   0.21826   0.91552   0.00000  Uiso   1.00
C5174  C     0.90017   0.18329   0.84483   0.00000  Uiso   1.00
C5175  C     0.90898   0.19667   0.88029   0.00000  Uiso   1.00
C5176  C     0.92378   0.18896   0.88052   0.00000  Uiso   1.00
C5177  C     0.94582   0.21632   0.90369   0.00000  Uiso   1.00
C5178  C     0.93211   0.21779   0.90920   0.00000  Uiso   1.00
N5179  N     0.88891   0.21823   0.90182   0.00000  Uiso   1.00
N5180  N     0.88776   0.19662   0.85814   0.00000  Uiso   1.00
H5181  H     0.90568   0.23111   0.94458   0.00000  Uiso   1.00
H5182  H     0.90230   0.16743   0.81585   0.00000  Uiso   1.00
H5183  H     0.95151   0.23602   0.92329   0.00000  Uiso   1.00
H5184  H     0.92842   0.23848   0.93258   0.00000  Uiso   1.00
C5185  C     0.77702   0.09326   0.91552   0.00000  Uiso   1.00
C5186  C     0.77517   0.05829   0.84483   0.00000  Uiso   1.00
C5187  C     0.78398   0.07167   0.88029   0.00000  Uiso   1.00
C5188  C     0.79878   0.06396   0.88052   0.00000  Uiso   1.00
C5189  C     0.82082   0.09132   0.90369   0.00000  Uiso   1.00
C5190  C     0.80711   0.09279   0.90920   0.00000  Uiso   1.00
N5191  N     0.76391   0.09323   0.90182   0.00000  Uiso   1.00
N5192  N     0.76276   0.07162   0.85814   0.00000  Uiso   1.00
H5193  H     0.78068   0.10611   0.94458   0.00000  Uiso   1.00
H5194  H     0.77730   0.04243   0.81585   0.00000  Uiso   1.00
H5195  H     0.82651   0.11102   0.92329   0.00000  Uiso   1.00
H5196  H     0.80342   0.11348   0.93258   0.00000  Uiso   1.00
Fe5197 Fe    0.87500   0.23961   0.81250   0.00000  Uiso   1.00
Fe5198 Fe    0.75000   0.11461   0.81250   0.00000  Uiso   1.00
Fe5199 Fe    0.87500   0.01039   0.93750   0.00000  Uiso   1.00
Fe5200 Fe    0.75000   0.13539   0.93750   0.00000  Uiso   1.00
C5201  C     0.15202   0.28174   0.79052   0.00000  Uiso   1.00
C5202  C     0.15017   0.31671   0.96983   0.00000  Uiso   1.00
C5203  C     0.15898   0.30333   0.75529   0.00000  Uiso   1.00
C5204  C     0.17378   0.31104   0.75552   0.00000  Uiso   1.00
C5205  C     0.19582   0.28368   0.77869   0.00000  Uiso   1.00
C5206  C     0.18211   0.28221   0.78420   0.00000  Uiso   1.00
N5207  N     0.13891   0.28177   0.77682   0.00000  Uiso   1.00
N5208  N     0.13776   0.30338   0.98314   0.00000  Uiso   1.00
H5209  H     0.15568   0.26889   0.81958   0.00000  Uiso   1.00
H5210  H     0.15230   0.33257   0.94085   0.00000  Uiso   1.00
H5211  H     0.20151   0.26398   0.79829   0.00000  Uiso   1.00
H5212  H     0.17842   0.26152   0.80758   0.00000  Uiso   1.00
C5213  C     0.02702   0.40674   0.79052   0.00000  Uiso   1.00
C5214  C     0.02517   0.44171   0.96983   0.00000  Uiso   1.00
C5215  C     0.03398   0.42833   0.75529   0.00000  Uiso   1.00
C5216  C     0.04878   0.43604   0.75552   0.00000  Uiso   1.00
C5217  C     0.07082   0.40868   0.77869   0.00000  Uiso   1.00
C5218  C     0.05711   0.40721   0.78420   0.00000  Uiso   1.00
N5219  N     0.01391   0.40677   0.77682   0.00000  Uiso   1.00
N5220  N     0.01276   0.42838   0.98314   0.00000  Uiso   1.00
H5221  H     0.03068   0.39389   0.81958   0.00000  Uiso   1.00
H5222  H     0.02730   0.45757   0.94085   0.00000  Uiso   1.00
H5223  H     0.07651   0.38898   0.79829   0.00000  Uiso   1.00
H5224  H     0.05342   0.38652   0.80758   0.00000  Uiso   1.00
C5225  C     0.09798   0.28174   0.83448   0.00000  Uiso   1.00
C5226  C     0.09983   0.31671   0.90517   0.00000  Uiso   1.00
C5227  C     0.09102   0.30333   0.86971   0.00000  Uiso   1.00
C5228  C     0.07622   0.31104   0.86948   0.00000  Uiso   1.00
C5229  C     0.05418   0.28368   0.84631   0.00000  Uiso   1.00
C5230  C     0.06789   0.28221   0.84080   0.00000  Uiso   1.00
N5231  N     0.11109   0.28177   0.84818   0.00000  Uiso   1.00
N5232  N     0.11224   0.30338   0.89186   0.00000  Uiso   1.00
H5233  H     0.09432   0.26889   0.80542   0.00000  Uiso   1.00
H5234  H     0.09770   0.33257   0.93415   0.00000  Uiso   1.00
H5235  H     0.04849   0.26398   0.82671   0.00000  Uiso   1.00
H5236  H     0.07158   0.26152   0.81742   0.00000  Uiso   1.00
C5237  C     0.22298   0.40674   0.83448   0.00000  Uiso   1.00
C5238  C     0.22483   0.44171   0.90517   0.00000  Uiso   1.00
C5239  C     0.21602   0.42833   0.86971   0.00000  Uiso   1.00
C5240  C     0.20122   0.43604   0.86948   0.00000  Uiso   1.00
C5241  C     0.17918   0.40868   0.84631   0.00000  Uiso   1.00
C5242  C     0.19289   0.40721   0.84080   0.00000  Uiso   1.00
N5243  N     0.23609   0.40677   0.84818   0.00000  Uiso   1.00
N5244  N     0.23724   0.42838   0.89186   0.00000  Uiso   1.00
H5245  H     0.21932   0.39389   0.80542   0.00000  Uiso   1.00
H5246  H     0.22270   0.45757   0.93415   0.00000  Uiso   1.00
H5247  H     0.17349   0.38898   0.82671   0.00000  Uiso   1.00
H5248  H     0.19658   0.38652   0.81742   0.00000  Uiso   1.00
C5249  C     0.09798   0.46826   0.95948   0.00000  Uiso   1.00
C5250  C     0.09983   0.43329   0.78017   0.00000  Uiso   1.00
C5251  C     0.09102   0.44667   0.99471   0.00000  Uiso   1.00
C5252  C     0.07622   0.43896   0.99448   0.00000  Uiso   1.00
C5253  C     0.05418   0.46632   0.97131   0.00000  Uiso   1.00
C5254  C     0.06789   0.46779   0.96580   0.00000  Uiso   1.00
N5255  N     0.11109   0.46823   0.97318   0.00000  Uiso   1.00
N5256  N     0.11224   0.44662   0.76686   0.00000  Uiso   1.00
H5257  H     0.09432   0.48111   0.93042   0.00000  Uiso   1.00
H5258  H     0.09770   0.41743   0.80915   0.00000  Uiso   1.00
H5259  H     0.04849   0.48602   0.95171   0.00000  Uiso   1.00
H5260  H     0.07158   0.48848   0.94242   0.00000  Uiso   1.00
C5261  C     0.22298   0.34326   0.95948   0.00000  Uiso   1.00
C5262  C     0.22483   0.30829   0.78017   0.00000  Uiso   1.00
C5263  C     0.21602   0.32167   0.99471   0.00000  Uiso   1.00
C5264  C     0.20122   0.31396   0.99448   0.00000  Uiso   1.00
C5265  C     0.17918   0.34132   0.97131   0.00000  Uiso   1.00
C5266  C     0.19289   0.34279   0.96580   0.00000  Uiso   1.00
N5267  N     0.23609   0.34323   0.97318   0.00000  Uiso   1.00
N5268  N     0.23724   0.32162   0.76686   0.00000  Uiso   1.00
H5269  H     0.21932   0.35611   0.93042   0.00000  Uiso   1.00
H5270  H     0.22270   0.29243   0.80915   0.00000  Uiso   1.00
H5271  H     0.17349   0.36102   0.95171   0.00000  Uiso   1.00
H5272  H     0.19658   0.36348   0.94242   0.00000  Uiso   1.00
C5273  C     0.15202   0.46826   0.91552   0.00000  Uiso   1.00
C5274  C     0.15017   0.43329   0.84483   0.00000  Uiso   1.00
C5275  C     0.15898   0.44667   0.88029   0.00000  Uiso   1.00
C5276  C     0.17378   0.43896   0.88052   0.00000  Uiso   1.00
C5277  C     0.19582   0.46632   0.90369   0.00000  Uiso   1.00
C5278  C     0.18211   0.46779   0.90920   0.00000  Uiso   1.00
N5279  N     0.13891   0.46823   0.90182   0.00000  Uiso   1.00
N5280  N     0.13776   0.44662   0.85814   0.00000  Uiso   1.00
H5281  H     0.15568   0.48111   0.94458   0.00000  Uiso   1.00
H5282  H     0.15230   0.41743   0.81585   0.00000  Uiso   1.00
H5283  H     0.20151   0.48602   0.92329   0.00000  Uiso   1.00
H5284  H     0.17842   0.48848   0.93258   0.00000  Uiso   1.00
C5285  C     0.02702   0.34326   0.91552   0.00000  Uiso   1.00
C5286  C     0.02517   0.30829   0.84483   0.00000  Uiso   1.00
C5287  C     0.03398   0.32167   0.88029   0.00000  Uiso   1.00
C5288  C     0.04878   0.31396   0.88052   0.00000  Uiso   1.00
C5289  C     0.07082   0.34132   0.90369   0.00000  Uiso   1.00
C5290  C     0.05711   0.34279   0.90920   0.00000  Uiso   1.00
N5291  N     0.01391   0.34323   0.90182   0.00000  Uiso   1.00
N5292  N     0.01276   0.32162   0.85814   0.00000  Uiso   1.00
H5293  H     0.03068   0.35611   0.94458   0.00000  Uiso   1.00
H5294  H     0.02730   0.29243   0.81585   0.00000  Uiso   1.00
H5295  H     0.07651   0.36102   0.92329   0.00000  Uiso   1.00
H5296  H     0.05342   0.36348   0.93258   0.00000  Uiso   1.00
Fe5297 Fe    0.12500   0.48961   0.81250   0.00000  Uiso   1.00
Fe5298 Fe    0.00000   0.36461   0.81250   0.00000  Uiso   1.00
Fe5299 Fe    0.12500   0.26039   0.93750   0.00000  Uiso   1.00
Fe5300 Fe   -0.00000   0.38539   0.93750   0.00000  Uiso   1.00
C5301  C     0.40202   0.28174   0.79052   0.00000  Uiso   1.00
C5302  C     0.40017   0.31671   0.96983   0.00000  Uiso   1.00
C5303  C     0.40898   0.30333   0.75529   0.00000  Uiso   1.00
C5304  C     0.42378   0.31104   0.75552   0.00000  Uiso   1.00
C5305  C     0.44582   0.28368   0.77869   0.00000  Uiso   1.00
C5306  C     0.43211   0.28221   0.78420   0.00000  Uiso   1.00
N5307  N     0.38891   0.28177   0.77682   0.00000  Uiso   1.00
N5308  N     0.38776   0.30338   0.98314   0.00000  Uiso   1.00
H5309  H     0.40568   0.26889   0.81958   0.00000  Uiso   1.00
H5310  H     0.40230   0.33257   0.94085   0.00000  Uiso   1.00
H5311  H     0.45151   0.26398   0.79829   0.00000  Uiso   1.00
H5312  H     0.42842   0.26152   0.80758   0.00000  Uiso   1.00
C5313  C     0.27702   0.40674   0.79052   0.00000  Uiso   1.00
C5314  C     0.27517   0.44171   0.96983   0.00000  Uiso   1.00
C5315  C     0.28398   0.42833   0.75529   0.00000  Uiso   1.00
C5316  C     0.29878   0.43604   0.75552   0.00000  Uiso   1.00
C5317  C     0.32082   0.40868   0.77869   0.00000  Uiso   1.00
C5318  C     0.30711   0.40721   0.78420   0.00000  Uiso   1.00
N5319  N     0.26391   0.40677   0.77682   0.00000  Uiso   1.00
N5320  N     0.26276   0.42838   0.98314   0.00000  Uiso   1.00
H5321  H     0.28068   0.39389   0.81958   0.00000  Uiso   1.00
H5322  H     0.27730   0.45757   0.94085   0.00000  Uiso   1.00
H5323  H     0.32651   0.38898   0.79829   0.00000  Uiso   1.00
H5324  H     0.30342   0.38652   0.80758   0.00000  Uiso   1.00
C5325  C     0.34798   0.28174   0.83448   0.00000  Uiso   1.00
C5326  C     0.34983   0.31671   0.90517   0.00000  Uiso   1.00
C5327  C     0.34102   0.30333   0.86971   0.00000  Uiso   1.00
C5328  C     0.32622   0.31104   0.86948   0.00000  Uiso   1.00
C5329  C     0.30418   0.28368   0.84631   0.00000  Uiso   1.00
C5330  C     0.31789   0.28221   0.84080   0.00000  Uiso   1.00
N5331  N     0.36109   0.28177   0.84818   0.00000  Uiso   1.00
N5332  N     0.36224   0.30338   0.89186   0.00000  Uiso   1.00
H5333  H     0.34432   0.26889   0.80542   0.00000  Uiso   1.00
H5334  H     0.34770   0.33257   0.93415   0.00000  Uiso   1.00
H5335  H     0.29849   0.26398   0.82671   0.00000  Uiso   1.00
H5336  H     0.32158   0.26152   0.81742   0.00000  Uiso   1.00
C5337  C     0.47298   0.40674   0.83448   0.00000  Uiso   1.00
C5338  C     0.47483   0.44171   0.90517   0.00000  Uiso   1.00
C5339  C     0.46602   0.42833   0.86971   0.00000  Uiso   1.00
C5340  C     0.45122   0.43604   0.86948   0.00000  Uiso   1.00
C5341  C     0.42918   0.40868   0.84631   0.00000  Uiso   1.00
C5342  C     0.44289   0.40721   0.84080   0.00000  Uiso   1.00
N5343  N     0.48609   0.40677   0.84818   0.00000  Uiso   1.00
N5344  N     0.48724   0.42838   0.89186   0.00000  Uiso   1.00
H5345  H     0.46932   0.39389   0.80542   0.00000  Uiso   1.00
H5346  H     0.47270   0.45757   0.93415   0.00000  Uiso   1.00
H5347  H     0.42349   0.38898   0.82671   0.00000  Uiso   1.00
H5348  H     0.44658   0.38652   0.81742   0.00000  Uiso   1.00
C5349  C     0.34798   0.46826   0.95948   0.00000  Uiso   1.00
C5350  C     0.34983   0.43329   0.78017   0.00000  Uiso   1.00
C5351  C     0.34102   0.44667   0.99471   0.00000  Uiso   1.00
C5352  C     0.32622   0.43896   0.99448   0.00000  Uiso   1.00
C5353  C     0.30418   0.46632   0.97131   0.00000  Uiso   1.00
C5354  C     0.31789   0.46779   0.96580   0.00000  Uiso   1.00
N5355  N     0.36109   0.46823   0.97318   0.00000  Uiso   1.00
N5356  N     0.36224   0.44662   0.76686   0.00000  Uiso   1.00
H5357  H     0.34432   0.48111   0.93042   0.00000  Uiso   1.00
H5358  H     0.34770   0.41743   0.80915   0.00000  Uiso   1.00
H5359  H     0.29849   0.48602   0.95171   0.00000  Uiso   1.00
H5360  H     0.32158   0.48848   0.94242   0.00000  Uiso   1.00
C5361  C     0.47298   0.34326   0.95948   0.00000  Uiso   1.00
C5362  C     0.47483   0.30829   0.78017   0.00000  Uiso   1.00
C5363  C     0.46602   0.32167   0.99471   0.00000  Uiso   1.00
C5364  C     0.45122   0.31396   0.99448   0.00000  Uiso   1.00
C5365  C     0.42918   0.34132   0.97131   0.00000  Uiso   1.00
C5366  C     0.44289   0.34279   0.96580   0.00000  Uiso   1.00
N5367  N     0.48609   0.34323   0.97318   0.00000  Uiso   1.00
N5368  N     0.48724   0.32162   0.76686   0.00000  Uiso   1.00
H5369  H     0.46932   0.35611   0.93042   0.00000  Uiso   1.00
H5370  H     0.47270   0.29243   0.80915   0.00000  Uiso   1.00
H5371  H     0.42349   0.36102   0.95171   0.00000  Uiso   1.00
H5372  H     0.44658   0.36348   0.94242   0.00000  Uiso   1.00
C5373  C     0.40202   0.46826   0.91552   0.00000  Uiso   1.00
C5374  C     0.40017   0.43329   0.84483   0.00000  Uiso   1.00
C5375  C     0.40898   0.44667   0.88029   0.00000  Uiso   1.00
C5376  C     0.42378   0.43896   0.88052   0.00000  Uiso   1.00
C5377  C     0.44582   0.46632   0.90369   0.00000  Uiso   1.00
C5378  C     0.43211   0.46779   0.90920   0.00000  Uiso   1.00
N5379  N     0.38891   0.46823   0.90182   0.00000  Uiso   1.00
N5380  N     0.38776   0.44662   0.85814   0.00000  Uiso   1.00
H5381  H     0.40568   0.48111   0.94458   0.00000  Uiso   1.00
H5382  H     0.40230   0.41743   0.81585   0.00000  Uiso   1.00
H5383  H     0.45151   0.48602   0.92329   0.00000  Uiso   1.00
H5384  H     0.42842   0.48848   0.93258   0.00000  Uiso   1.00
C5385  C     0.27702   0.34326   0.91552   0.00000  Uiso   1.00
C5386  C     0.27517   0.30829   0.84483   0.00000  Uiso   1.00
C5387  C     0.28398   0.32167   0.88029   0.00000  Uiso   1.00
C5388  C     0.29878   0.31396   0.88052   0.00000  Uiso   1.00
C5389  C     0.32082   0.34132   0.90369   0.00000  Uiso   1.00
C5390  C     0.30711   0.34279   0.90920   0.00000  Uiso   1.00
N5391  N     0.26391   0.34323   0.90182   0.00000  Uiso   1.00
N5392  N     0.26276   0.32162   0.85814   0.00000  Uiso   1.00
H5393  H     0.28068   0.35611   0.94458   0.00000  Uiso   1.00
H5394  H     0.27730   0.29243   0.81585   0.00000  Uiso   1.00
H5395  H     0.32651   0.36102   0.92329   0.00000  Uiso   1.00
H5396  H     0.30342   0.36348   0.93258   0.00000  Uiso   1.00
Fe5397 Fe    0.37500   0.48961   0.81250   0.00000  Uiso   1.00
Fe5398 Fe    0.25000   0.36461   0.81250   0.00000  Uiso   1.00
Fe5399 Fe    0.37500   0.26039   0.93750   0.00000  Uiso   1.00
Fe5400 Fe    0.25000   0.38539   0.93750   0.00000  Uiso   1.00
C5401  C     0.65202   0.28174   0.79052   0.00000  Uiso   1.00
C5402  C     0.65017   0.31671   0.96983   0.00000  Uiso   1.00
C5403  C     0.65898   0.30333   0.75529   0.00000  Uiso   1.00
C5404  C     0.67378   0.31104   0.75552   0.00000  Uiso   1.00
C5405  C     0.69582   0.28368   0.77869   0.00000  Uiso   1.00
C5406  C     0.68211   0.28221   0.78420   0.00000  Uiso   1.00
N5407  N     0.63891   0.28177   0.77682   0.00000  Uiso   1.00
N5408  N     0.63776   0.30338   0.98314   0.00000  Uiso   1.00
H5409  H     0.65568   0.26889   0.81958   0.00000  Uiso   1.00
H5410  H     0.65230   0.33257   0.94085   0.00000  Uiso   1.00
H5411  H     0.70151   0.26398   0.79829   0.00000  Uiso   1.00
H5412  H     0.67842   0.26152   0.80758   0.00000  Uiso   1.00
C5413  C     0.52702   0.40674   0.79052   0.00000  Uiso   1.00
C5414  C     0.52517   0.44171   0.96983   0.00000  Uiso   1.00
C5415  C     0.53398   0.42833   0.75529   0.00000  Uiso   1.00
C5416  C     0.54878   0.43604   0.75552   0.00000  Uiso   1.00
C5417  C     0.57082   0.40868   0.77869   0.00000  Uiso   1.00
C5418  C     0.55711   0.40721   0.78420   0.00000  Uiso   1.00
N5419  N     0.51391   0.40677   0.77682   0.00000  Uiso   1.00
N5420  N     0.51276   0.42838   0.98314   0.00000  Uiso   1.00
H5421  H     0.53068   0.39389   0.81958   0.00000  Uiso   1.00
H5422  H     0.52730   0.45757   0.94085   0.00000  Uiso   1.00
H5423  H     0.57651   0.38898   0.79829   0.00000  Uiso   1.00
H5424  H     0.55342   0.38652   0.80758   0.00000  Uiso   1.00
C5425  C     0.59798   0.28174   0.83448   0.00000  Uiso   1.00
C5426  C     0.59983   0.31671   0.90517   0.00000  Uiso   1.00
C5427  C     0.59102   0.30333   0.86971   0.00000  Uiso   1.00
C5428  C     0.57622   0.31104   0.86948   0.00000  Uiso   1.00
C5429  C     0.55418   0.28368   0.84631   0.00000  Uiso   1.00
C5430  C     0.56789   0.28221   0.84080   0.00000  Uiso   1.00
N5431  N     0.61109   0.28177   0.84818   0.00000  Uiso   1.00
N5432  N     0.61224   0.30338   0.89186   0.00000  Uiso   1.00
H5433  H     0.59432   0.26889   0.80542   0.00000  Uiso   1.00
H5434  H     0.59770   0.33257   0.93415   0.00000  Uiso   1.00
H5435  H     0.54849   0.26398   0.82671   0.00000  Uiso   1.00
H5436  H     0.57158   0.26152   0.81742   0.00000  Uiso   1.00
C5437  C     0.72298   0.40674   0.83448   0.00000  Uiso   1.00
C5438  C     0.72483   0.44171   0.90517   0.00000  Uiso   1.00
C5439  C     0.71602   0.42833   0.86971   0.00000  Uiso   1.00
C5440  C     0.70122   0.43604   0.86948   0.00000  Uiso   1.00
C5441  C     0.67918   0.40868   0.84631   0.00000  Uiso   1.00
C5442  C     0.69289   0.40721   0.84080   0.00000  Uiso   1.00
N5443  N     0.73609   0.40677   0.84818   0.00000  Uiso   1.00
N5444  N     0.73724   0.42838   0.89186   0.00000  Uiso   1.00
H5445  H     0.71932   0.39389   0.80542   0.00000  Uiso   1.00
H5446  H     0.72270   0.45757   0.93415   0.00000  Uiso   1.00
H5447  H     0.67349   0.38898   0.82671   0.00000  Uiso   1.00
H5448  H     0.69658   0.38652   0.81742   0.00000  Uiso   1.00
C5449  C     0.59798   0.46826   0.95948   0.00000  Uiso   1.00
C5450  C     0.59983   0.43329   0.78017   0.00000  Uiso   1.00
C5451  C     0.59102   0.44667   0.99471   0.00000  Uiso   1.00
C5452  C     0.57622   0.43896   0.99448   0.00000  Uiso   1.00
C5453  C     0.55418   0.46632   0.97131   0.00000  Uiso   1.00
C5454  C     0.56789   0.46779   0.96580   0.00000  Uiso   1.00
N5455  N     0.61109   0.46823   0.97318   0.00000  Uiso   1.00
N5456  N     0.61224   0.44662   0.76686   0.00000  Uiso   1.00
H5457  H     0.59432   0.48111   0.93042   0.00000  Uiso   1.00
H5458  H     0.59770   0.41743   0.80915   0.00000  Uiso   1.00
H5459  H     0.54849   0.48602   0.95171   0.00000  Uiso   1.00
H5460  H     0.57158   0.48848   0.94242   0.00000  Uiso   1.00
C5461  C     0.72298   0.34326   0.95948   0.00000  Uiso   1.00
C5462  C     0.72483   0.30829   0.78017   0.00000  Uiso   1.00
C5463  C     0.71602   0.32167   0.99471   0.00000  Uiso   1.00
C5464  C     0.70122   0.31396   0.99448   0.00000  Uiso   1.00
C5465  C     0.67918   0.34132   0.97131   0.00000  Uiso   1.00
C5466  C     0.69289   0.34279   0.96580   0.00000  Uiso   1.00
N5467  N     0.73609   0.34323   0.97318   0.00000  Uiso   1.00
N5468  N     0.73724   0.32162   0.76686   0.00000  Uiso   1.00
H5469  H     0.71932   0.35611   0.93042   0.00000  Uiso   1.00
H5470  H     0.72270   0.29243   0.80915   0.00000  Uiso   1.00
H5471  H     0.67349   0.36102   0.95171   0.00000  Uiso   1.00
H5472  H     0.69658   0.36348   0.94242   0.00000  Uiso   1.00
C5473  C     0.65202   0.46826   0.91552   0.00000  Uiso   1.00
C5474  C     0.65017   0.43329   0.84483   0.00000  Uiso   1.00
C5475  C     0.65898   0.44667   0.88029   0.00000  Uiso   1.00
C5476  C     0.67378   0.43896   0.88052   0.00000  Uiso   1.00
C5477  C     0.69582   0.46632   0.90369   0.00000  Uiso   1.00
C5478  C     0.68211   0.46779   0.90920   0.00000  Uiso   1.00
N5479  N     0.63891   0.46823   0.90182   0.00000  Uiso   1.00
N5480  N     0.63776   0.44662   0.85814   0.00000  Uiso   1.00
H5481  H     0.65568   0.48111   0.94458   0.00000  Uiso   1.00
H5482  H     0.65230   0.41743   0.81585   0.00000  Uiso   1.00
H5483  H     0.70151   0.48602   0.92329   0.00000  Uiso   1.00
H5484  H     0.67842   0.48848   0.93258   0.00000  Uiso   1.00
C5485  C     0.52702   0.34326   0.91552   0.00000  Uiso   1.00
C5486  C     0.52517   0.30829   0.84483   0.00000  Uiso   1.00
C5487  C     0.53398   0.32167   0.88029   0.00000  Uiso   1.00
C5488  C     0.54878   0.31396   0.88052   0.00000  Uiso   1.00
C5489  C     0.57082   0.34132   0.90369   0.00000  Uiso   1.00
C5490  C     0.55711   0.34279   0.90920   0.00000  Uiso   1.00
N5491  N     0.51391   0.34323   0.90182   0.00000  Uiso   1.00
N5492  N     0.51276   0.32162   0.85814   0.00000  Uiso   1.00
H5493  H     0.53068   0.35611   0.94458   0.00000  Uiso   1.00
H5494  H     0.52730   0.29243   0.81585   0.00000  Uiso   1.00
H5495  H     0.57651   0.36102   0.92329   0.00000  Uiso   1.00
H5496  H     0.55342   0.36348   0.93258   0.00000  Uiso   1.00
Fe5497 Fe    0.62500   0.48961   0.81250   0.00000  Uiso   1.00
Fe5498 Fe    0.50000   0.36461   0.81250   0.00000  Uiso   1.00
Fe5499 Fe    0.62500   0.26039   0.93750   0.00000  Uiso   1.00
Fe5500 Fe    0.50000   0.38539   0.93750   0.00000  Uiso   1.00
C5501  C     0.90202   0.28174   0.79052   0.00000  Uiso   1.00
C5502  C     0.90017   0.31671   0.96983   0.00000  Uiso   1.00
C5503  C     0.90898   0.30333   0.75529   0.00000  Uiso   1.00
C5504  C     0.92378   0.31104   0.75552   0.00000  Uiso   1.00
C5505  C     0.94582   0.28368   0.77869   0.00000  Uiso   1.00
C5506  C     0.93211   0.28221   0.78420   0.00000  Uiso   1.00
N5507  N     0.88891   0.28177   0.77682   0.00000  Uiso   1.00
N5508  N     0.88776   0.30338   0.98314   0.00000  Uiso   1.00
H5509  H     0.90568   0.26889   0.81958   0.00000  Uiso   1.00
H5510  H     0.90230   0.33257   0.94085   0.00000  Uiso   1.00
H5511  H     0.95151   0.26398   0.79829   0.00000  Uiso   1.00
H5512  H     0.92842   0.26152   0.80758   0.00000  Uiso   1.00
C5513  C     0.77702   0.40674   0.79052   0.00000  Uiso   1.00
C5514  C     0.77517   0.44171   0.96983   0.00000  Uiso   1.00
C5515  C     0.78398   0.42833   0.75529   0.00000  Uiso   1.00
C5516  C     0.79878   0.43604   0.75552   0.00000  Uiso   1.00
C5517  C     0.82082   0.40868   0.77869   0.00000  Uiso   1.00
C5518  C     0.80711   0.40721   0.78420   0.00000  Uiso   1.00
N5519  N     0.76391   0.40677   0.77682   0.00000  Uiso   1.00
N5520  N     0.76276   0.42838   0.98314   0.00000  Uiso   1.00
H5521  H     0.78068   0.39389   0.81958   0.00000  Uiso   1.00
H5522  H     0.77730   0.45757   0.94085   0.00000  Uiso   1.00
H5523  H     0.82651   0.38898   0.79829   0.00000  Uiso   1.00
H5524  H     0.80342   0.38652   0.80758   0.00000  Uiso   1.00
C5525  C     0.84798   0.28174   0.83448   0.00000  Uiso   1.00
C5526  C     0.84983   0.31671   0.90517   0.00000  Uiso   1.00
C5527  C     0.84102   0.30333   0.86971   0.00000  Uiso   1.00
C5528  C     0.82622   0.31104   0.86948   0.00000  Uiso   1.00
C5529  C     0.80418   0.28368   0.84631   0.00000  Uiso   1.00
C5530  C     0.81789   0.28221   0.84080   0.00000  Uiso   1.00
N5531  N     0.86109   0.28177   0.84818   0.00000  Uiso   1.00
N5532  N     0.86224   0.30338   0.89186   0.00000  Uiso   1.00
H5533  H     0.84432   0.26889   0.80542   0.00000  Uiso   1.00
H5534  H     0.84770   0.33257   0.93415   0.00000  Uiso   1.00
H5535  H     0.79849   0.26398   0.82671   0.00000  Uiso   1.00
H5536  H     0.82158   0.26152   0.81742   0.00000  Uiso   1.00
C5537  C     0.97298   0.40674   0.83448   0.00000  Uiso   1.00
C5538  C     0.97483   0.44171   0.90517   0.00000  Uiso   1.00
C5539  C     0.96602   0.42833   0.86971   0.00000  Uiso   1.00
C5540  C     0.95122   0.43604   0.86948   0.00000  Uiso   1.00
C5541  C     0.92918   0.40868   0.84631   0.00000  Uiso   1.00
C5542  C     0.94289   0.40721   0.84080   0.00000  Uiso   1.00
N5543  N     0.98609   0.40677   0.84818   0.00000  Uiso   1.00
N5544  N     0.98724   0.42838   0.89186   0.00000  Uiso   1.00
H5545  H     0.96932   0.39389   0.80542   0.00000  Uiso   1.00
H5546  H     0.97270   0.45757   0.93415   0.00000  Uiso   1.00
H5547  H     0.92349   0.38898   0.82671   0.00000  Uiso   1.00
H5548  H     0.94658   0.38652   0.81742   0.00000  Uiso   1.00
C5549  C     0.84798   0.46826   0.95948   0.00000  Uiso   1.00
C5550  C     0.84983   0.43329   0.78017   0.00000  Uiso   1.00
C5551  C     0.84102   0.44667   0.99471   0.00000  Uiso   1.00
C5552  C     0.82622   0.43896   0.99448   0.00000  Uiso   1.00
C5553  C     0.80418   0.46632   0.97131   0.00000  Uiso   1.00
C5554  C     0.81789   0.46779   0.96580   0.00000  Uiso   1.00
N5555  N     0.86109   0.46823   0.97318   0.00000  Uiso   1.00
N5556  N     0.86224   0.44662   0.76686   0.00000  Uiso   1.00
H5557  H     0.84432   0.48111   0.93042   0.00000  Uiso   1.00
H5558  H     0.84770   0.41743   0.80915   0.00000  Uiso   1.00
H5559  H     0.79849   0.48602   0.95171   0.00000  Uiso   1.00
H5560  H     0.82158   0.48848   0.94242   0.00000  Uiso   1.00
C5561  C     0.97298   0.34326   0.95948   0.00000  Uiso   1.00
C5562  C     0.97483   0.30829   0.78017   0.00000  Uiso   1.00
C5563  C     0.96602   0.32167   0.99471   0.00000  Uiso   1.00
C5564  C     0.95122   0.31396   0.99448   0.00000  Uiso   1.00
C5565  C     0.92918   0.34132   0.97131   0.00000  Uiso   1.00
C5566  C     0.94289   0.34279   0.96580   0.00000  Uiso   1.00
N5567  N     0.98609   0.34323   0.97318   0.00000  Uiso   1.00
N5568  N     0.98724   0.32162   0.76686   0.00000  Uiso   1.00
H5569  H     0.96932   0.35611   0.93042   0.00000  Uiso   1.00
H5570  H     0.97270   0.29243   0.80915   0.00000  Uiso   1.00
H5571  H     0.92349   0.36102   0.95171   0.00000  Uiso   1.00
H5572  H     0.94658   0.36348   0.94242   0.00000  Uiso   1.00
C5573  C     0.90202   0.46826   0.91552   0.00000  Uiso   1.00
C5574  C     0.90017   0.43329   0.84483   0.00000  Uiso   1.00
C5575  C     0.90898   0.44667   0.88029   0.00000  Uiso   1.00
C5576  C     0.92378   0.43896   0.88052   0.00000  Uiso   1.00
C5577  C     0.94582   0.46632   0.90369   0.00000  Uiso   1.00
C5578  C     0.93211   0.46779   0.90920   0.00000  Uiso   1.00
N5579  N     0.88891   0.46823   0.90182   0.00000  Uiso   1.00
N5580  N     0.88776   0.44662   0.85814   0.00000  Uiso   1.00
H5581  H     0.90568   0.48111   0.94458   0.00000  Uiso   1.00
H5582  H     0.90230   0.41743   0.81585   0.00000  Uiso   1.00
H5583  H     0.95151   0.48602   0.92329   0.00000  Uiso   1.00
H5584  H     0.92842   0.48848   0.93258   0.00000  Uiso   1.00
C5585  C     0.77702   0.34326   0.91552   0.00000  Uiso   1.00
C5586  C     0.77517   0.30829   0.84483   0.00000  Uiso   1.00
C5587  C     0.78398   0.32167   0.88029   0.00000  Uiso   1.00
C5588  C     0.79878   0.31396   0.88052   0.00000  Uiso   1.00
C5589  C     0.82082   0.34132   0.90369   0.00000  Uiso   1.00
C5590  C     0.80711   0.34279   0.90920   0.00000  Uiso   1.00
N5591  N     0.76391   0.34323   0.90182   0.00000  Uiso   1.00
N5592  N     0.76276   0.32162   0.85814   0.00000  Uiso   1.00
H5593  H     0.78068   0.35611   0.94458   0.00000  Uiso   1.00
H5594  H     0.77730   0.29243   0.81585   0.00000  Uiso   1.00
H5595  H     0.82651   0.36102   0.92329   0.00000  Uiso   1.00
H5596  H     0.80342   0.36348   0.93258   0.00000  Uiso   1.00
Fe5597 Fe    0.87500   0.48961   0.81250   0.00000  Uiso   1.00
Fe5598 Fe    0.75000   0.36461   0.81250   0.00000  Uiso   1.00
Fe5599 Fe    0.87500   0.26039   0.93750   0.00000  Uiso   1.00
Fe5600 Fe    0.75000   0.38539   0.93750   0.00000  Uiso   1.00
C5601  C     0.15202   0.53174   0.79052   0.00000  Uiso   1.00
C5602  C     0.15017   0.56671   0.96983   0.00000  Uiso   1.00
C5603  C     0.15898   0.55333   0.75529   0.00000  Uiso   1.00
C5604  C     0.17378   0.56104   0.75552   0.00000  Uiso   1.00
C5605  C     0.19582   0.53368   0.77869   0.00000  Uiso   1.00
C5606  C     0.18211   0.53221   0.78420   0.00000  Uiso   1.00
N5607  N     0.13891   0.53177   0.77682   0.00000  Uiso   1.00
N5608  N     0.13776   0.55338   0.98314   0.00000  Uiso   1.00
H5609  H     0.15568   0.51889   0.81958   0.00000  Uiso   1.00
H5610  H     0.15230   0.58257   0.94085   0.00000  Uiso   1.00
H5611  H     0.20151   0.51398   0.79829   0.00000  Uiso   1.00
H5612  H     0.17842   0.51152   0.80758   0.00000  Uiso   1.00
C5613  C     0.02702   0.65674   0.79052   0.00000  Uiso   1.00
C5614  C     0.02517   0.69171   0.96983   0.00000  Uiso   1.00
C5615  C     0.03398   0.67833   0.75529   0.00000  Uiso   1.00
C5616  C     0.04878   0.68604   0.75552   0.00000  Uiso   1.00
C5617  C     0.07082   0.65868   0.77869   0.00000  Uiso   1.00
C5618  C     0.05711   0.65721   0.78420   0.00000  Uiso   1.00
N5619  N     0.01391   0.65677   0.77682   0.00000  Uiso   1.00
N5620  N     0.01276   0.67838   0.98314   0.00000  Uiso   1.00
H5621  H     0.03068   0.64389   0.81958   0.00000  Uiso   1.00
H5622  H     0.02730   0.70757   0.94085   0.00000  Uiso   1.00
H5623  H     0.07651   0.63898   0.79829   0.00000  Uiso   1.00
H5624  H     0.05342   0.63652   0.80758   0.00000  Uiso   1.00
C5625  C     0.09798   0.53174   0.83448   0.00000  Uiso   1.00
C5626  C     0.09983   0.56671   0.90517   0.00000  Uiso   1.00
C5627  C     0.09102   0.55333   0.86971   0.00000  Uiso   1.00
C5628  C     0.07622   0.56104   0.86948   0.00000  Uiso   1.00
C5629  C     0.05418   0.53368   0.84631   0.00000  Uiso   1.00
C5630  C     0.06789   0.53221   0.84080   0.00000  Uiso   1.00
N5631  N     0.11109   0.53177   0.84818   0.00000  Uiso   1.00
N5632  N     0.11224   0.55338   0.89186   0.00000  Uiso   1.00
H5633  H     0.09432   0.51889   0.80542   0.00000  Uiso   1.00
H5634  H     0.09770   0.58257   0.93415   0.00000  Uiso   1.00
H5635  H     0.04849   0.51398   0.82671   0.00000  Uiso   1.00
H5636  H     0.07158   0.51152   0.81742   0.00000  Uiso   1.00
C5637  C     0.22298   0.65674   0.83448   0.00000  Uiso   1.00
C5638  C     0.22483   0.69171   0.90517   0.00000  Uiso   1.00
C5639  C     0.21602   0.67833   0.86971   0.00000  Uiso   1.00
C5640  C     0.20122   0.68604   0.86948   0.00000  Uiso   1.00
C5641  C     0.17918   0.65868   0.84631   0.00000  Uiso   1.00
C5642  C     0.19289   0.65721   0.84080   0.00000  Uiso   1.00
N5643  N     0.23609   0.65677   0.84818   0.00000  Uiso   1.00
N5644  N     0.23724   0.67838   0.89186   0.00000  Uiso   1.00
H5645  H     0.21932   0.64389   0.80542   0.00000  Uiso   1.00
H5646  H     0.22270   0.70757   0.93415   0.00000  Uiso   1.00
H5647  H     0.17349   0.63898   0.82671   0.00000  Uiso   1.00
H5648  H     0.19658   0.63652   0.81742   0.00000  Uiso   1.00
C5649  C     0.09798   0.71826   0.95948   0.00000  Uiso   1.00
C5650  C     0.09983   0.68329   0.78017   0.00000  Uiso   1.00
C5651  C     0.09102   0.69667   0.99471   0.00000  Uiso   1.00
C5652  C     0.07622   0.68896   0.99448   0.00000  Uiso   1.00
C5653  C     0.05418   0.71632   0.97131   0.00000  Uiso   1.00
C5654  C     0.06789   0.71779   0.96580   0.00000  Uiso   1.00
N5655  N     0.11109   0.71823   0.97318   0.00000  Uiso   1.00
N5656  N     0.11224   0.69662   0.76686   0.00000  Uiso   1.00
H5657  H     0.09432   0.73111   0.93042   0.00000  Uiso   1.00
H5658  H     0.09770   0.66743   0.80915   0.00000  Uiso   1.00
H5659  H     0.04849   0.73602   0.95171   0.00000  Uiso   1.00
H5660  H     0.07158   0.73848   0.94242   0.00000  Uiso   1.00
C5661  C     0.22298   0.59326   0.95948   0.00000  Uiso   1.00
C5662  C     0.22483   0.55829   0.78017   0.00000  Uiso   1.00
C5663  C     0.21602   0.57167   0.99471   0.00000  Uiso   1.00
C5664  C     0.20122   0.56396   0.99448   0.00000  Uiso   1.00
C5665  C     0.17918   0.59132   0.97131   0.00000  Uiso   1.00
C5666  C     0.19289   0.59279   0.96580   0.00000  Uiso   1.00
N5667  N     0.23609   0.59323   0.97318   0.00000  Uiso   1.00
N5668  N     0.23724   0.57162   0.76686   0.00000  Uiso   1.00
H5669  H     0.21932   0.60611   0.93042   0.00000  Uiso   1.00
H5670  H     0.22270   0.54243   0.80915   0.00000  Uiso   1.00
H5671  H     0.17349   0.61102   0.95171   0.00000  Uiso   1.00
H5672  H     0.19658   0.61348   0.94242   0.00000  Uiso   1.00
C5673  C     0.15202   0.71826   0.91552   0.00000  Uiso   1.00
C5674  C     0.15017   0.68329   0.84483   0.00000  Uiso   1.00
C5675  C     0.15898   0.69667   0.88029   0.00000  Uiso   1.00
C5676  C     0.17378   0.68896   0.88052   0.00000  Uiso   1.00
C5677  C     0.19582   0.71632   0.90369   0.00000  Uiso   1.00
C5678  C     0.18211   0.71779   0.90920   0.00000  Uiso   1.00
N5679  N     0.13891   0.71823   0.90182   0.00000  Uiso   1.00
N5680  N     0.13776   0.69662   0.85814   0.00000  Uiso   1.00
H5681  H     0.15568   0.73111   0.94458   0.00000  Uiso   1.00
H5682  H     0.15230   0.66743   0.81585   0.00000  Uiso   1.00
H5683  H     0.20151   0.73602   0.92329   0.00000  Uiso   1.00
H5684  H     0.17842   0.73848   0.93258   0.00000  Uiso   1.00
C5685  C     0.02702   0.59326   0.91552   0.00000  Uiso   1.00
C5686  C     0.02517   0.55829   0.84483   0.00000  Uiso   1.00
C5687  C     0.03398   0.57167   0.88029   0.00000  Uiso   1.00
C5688  C     0.04878   0.56396   0.88052   0.00000  Uiso   1.00
C5689  C     0.07082   0.59132   0.90369   0.00000  Uiso   1.00
C5690  C     0.05711   0.59279   0.90920   0.00000  Uiso   1.00
N5691  N     0.01391   0.59323   0.90182   0.00000  Uiso   1.00
N5692  N     0.01276   0.57162   0.85814   0.00000  Uiso   1.00
H5693  H     0.03068   0.60611   0.94458   0.00000  Uiso   1.00
H5694  H     0.02730   0.54243   0.81585   0.00000  Uiso   1.00
H5695  H     0.07651   0.61102   0.92329   0.00000  Uiso   1.00
H5696  H     0.05342   0.61348   0.93258   0.00000  Uiso   1.00
Fe5697 Fe    0.12500   0.73961   0.81250   0.00000  Uiso   1.00
Fe5698 Fe    0.00000   0.61461   0.81250   0.00000  Uiso   1.00
Fe5699 Fe    0.12500   0.51039   0.93750   0.00000  Uiso   1.00
Fe5700 Fe   -0.00000   0.63539   0.93750   0.00000  Uiso   1.00
C5701  C     0.40202   0.53174   0.79052   0.00000  Uiso   1.00
C5702  C     0.40017   0.56671   0.96983   0.00000  Uiso   1.00
C5703  C     0.40898   0.55333   0.75529   0.00000  Uiso   1.00
C5704  C     0.42378   0.56104   0.75552   0.00000  Uiso   1.00
C5705  C     0.44582   0.53368   0.77869   0.00000  Uiso   1.00
C5706  C     0.43211   0.53221   0.78420   0.00000  Uiso   1.00
N5707  N     0.38891   0.53177   0.77682   0.00000  Uiso   1.00
N5708  N     0.38776   0.55338   0.98314   0.00000  Uiso   1.00
H5709  H     0.40568   0.51889   0.81958   0.00000  Uiso   1.00
H5710  H     0.40230   0.58257   0.94085   0.00000  Uiso   1.00
H5711  H     0.45151   0.51398   0.79829   0.00000  Uiso   1.00
H5712  H     0.42842   0.51152   0.80758   0.00000  Uiso   1.00
C5713  C     0.27702   0.65674   0.79052   0.00000  Uiso   1.00
C5714  C     0.27517   0.69171   0.96983   0.00000  Uiso   1.00
C5715  C     0.28398   0.67833   0.75529   0.00000  Uiso   1.00
C5716  C     0.29878   0.68604   0.75552   0.00000  Uiso   1.00
C5717  C     0.32082   0.65868   0.77869   0.00000  Uiso   1.00
C5718  C     0.30711   0.65721   0.78420   0.00000  Uiso   1.00
N5719  N     0.26391   0.65677   0.77682   0.00000  Uiso   1.00
N5720  N     0.26276   0.67838   0.98314   0.00000  Uiso   1.00
H5721  H     0.28068   0.64389   0.81958   0.00000  Uiso   1.00
H5722  H     0.27730   0.70757   0.94085   0.00000  Uiso   1.00
H5723  H     0.32651   0.63898   0.79829   0.00000  Uiso   1.00
H5724  H     0.30342   0.63652   0.80758   0.00000  Uiso   1.00
C5725  C     0.34798   0.53174   0.83448   0.00000  Uiso   1.00
C5726  C     0.34983   0.56671   0.90517   0.00000  Uiso   1.00
C5727  C     0.34102   0.55333   0.86971   0.00000  Uiso   1.00
C5728  C     0.32622   0.56104   0.86948   0.00000  Uiso   1.00
C5729  C     0.30418   0.53368   0.84631   0.00000  Uiso   1.00
C5730  C     0.31789   0.53221   0.84080   0.00000  Uiso   1.00
N5731  N     0.36109   0.53177   0.84818   0.00000  Uiso   1.00
N5732  N     0.36224   0.55338   0.89186   0.00000  Uiso   1.00
H5733  H     0.34432   0.51889   0.80542   0.00000  Uiso   1.00
H5734  H     0.34770   0.58257   0.93415   0.00000  Uiso   1.00
H5735  H     0.29849   0.51398   0.82671   0.00000  Uiso   1.00
H5736  H     0.32158   0.51152   0.81742   0.00000  Uiso   1.00
C5737  C     0.47298   0.65674   0.83448   0.00000  Uiso   1.00
C5738  C     0.47483   0.69171   0.90517   0.00000  Uiso   1.00
C5739  C     0.46602   0.67833   0.86971   0.00000  Uiso   1.00
C5740  C     0.45122   0.68604   0.86948   0.00000  Uiso   1.00
C5741  C     0.42918   0.65868   0.84631   0.00000  Uiso   1.00
C5742  C     0.44289   0.65721   0.84080   0.00000  Uiso   1.00
N5743  N     0.48609   0.65677   0.84818   0.00000  Uiso   1.00
N5744  N     0.48724   0.67838   0.89186   0.00000  Uiso   1.00
H5745  H     0.46932   0.64389   0.80542   0.00000  Uiso   1.00
H5746  H     0.47270   0.70757   0.93415   0.00000  Uiso   1.00
H5747  H     0.42349   0.63898   0.82671   0.00000  Uiso   1.00
H5748  H     0.44658   0.63652   0.81742   0.00000  Uiso   1.00
C5749  C     0.34798   0.71826   0.95948   0.00000  Uiso   1.00
C5750  C     0.34983   0.68329   0.78017   0.00000  Uiso   1.00
C5751  C     0.34102   0.69667   0.99471   0.00000  Uiso   1.00
C5752  C     0.32622   0.68896   0.99448   0.00000  Uiso   1.00
C5753  C     0.30418   0.71632   0.97131   0.00000  Uiso   1.00
C5754  C     0.31789   0.71779   0.96580   0.00000  Uiso   1.00
N5755  N     0.36109   0.71823   0.97318   0.00000  Uiso   1.00
N5756  N     0.36224   0.69662   0.76686   0.00000  Uiso   1.00
H5757  H     0.34432   0.73111   0.93042   0.00000  Uiso   1.00
H5758  H     0.34770   0.66743   0.80915   0.00000  Uiso   1.00
H5759  H     0.29849   0.73602   0.95171   0.00000  Uiso   1.00
H5760  H     0.32158   0.73848   0.94242   0.00000  Uiso   1.00
C5761  C     0.47298   0.59326   0.95948   0.00000  Uiso   1.00
C5762  C     0.47483   0.55829   0.78017   0.00000  Uiso   1.00
C5763  C     0.46602   0.57167   0.99471   0.00000  Uiso   1.00
C5764  C     0.45122   0.56396   0.99448   0.00000  Uiso   1.00
C5765  C     0.42918   0.59132   0.97131   0.00000  Uiso   1.00
C5766  C     0.44289   0.59279   0.96580   0.00000  Uiso   1.00
N5767  N     0.48609   0.59323   0.97318   0.00000  Uiso   1.00
N5768  N     0.48724   0.57162   0.76686   0.00000  Uiso   1.00
H5769  H     0.46932   0.60611   0.93042   0.00000  Uiso   1.00
H5770  H     0.47270   0.54243   0.80915   0.00000  Uiso   1.00
H5771  H     0.42349   0.61102   0.95171   0.00000  Uiso   1.00
H5772  H     0.44658   0.61348   0.94242   0.00000  Uiso   1.00
C5773  C     0.40202   0.71826   0.91552   0.00000  Uiso   1.00
C5774  C     0.40017   0.68329   0.84483   0.00000  Uiso   1.00
C5775  C     0.40898   0.69667   0.88029   0.00000  Uiso   1.00
C5776  C     0.42378   0.68896   0.88052   0.00000  Uiso   1.00
C5777  C     0.44582   0.71632   0.90369   0.00000  Uiso   1.00
C5778  C     0.43211   0.71779   0.90920   0.00000  Uiso   1.00
N5779  N     0.38891   0.71823   0.90182   0.00000  Uiso   1.00
N5780  N     0.38776   0.69662   0.85814   0.00000  Uiso   1.00
H5781  H     0.40568   0.73111   0.94458   0.00000  Uiso   1.00
H5782  H     0.40230   0.66743   0.81585   0.00000  Uiso   1.00
H5783  H     0.45151   0.73602   0.92329   0.00000  Uiso   1.00
H5784  H     0.42842   0.73848   0.93258   0.00000  Uiso   1.00
C5785  C     0.27702   0.59326   0.91552   0.00000  Uiso   1.00
C5786  C     0.27517   0.55829   0.84483   0.00000  Uiso   1.00
C5787  C     0.28398   0.57167   0.88029   0.00000  Uiso   1.00
C5788  C     0.29878   0.56396   0.88052   0.00000  Uiso   1.00
C5789  C     0.32082   0.59132   0.90369   0.00000  Uiso   1.00
C5790  C     0.30711   0.59279   0.90920   0.00000  Uiso   1.00
N5791  N     0.26391   0.59323   0.90182   0.00000  Uiso   1.00
N5792  N     0.26276   0.57162   0.85814   0.00000  Uiso   1.00
H5793  H     0.28068   0.60611   0.94458   0.00000  Uiso   1.00
H5794  H     0.27730   0.54243   0.81585   0.00000  Uiso   1.00
H5795  H     0.32651   0.61102   0.92329   0.00000  Uiso   1.00
H5796  H     0.30342   0.61348   0.93258   0.00000  Uiso   1.00
Fe5797 Fe    0.37500   0.73961   0.81250   0.00000  Uiso   1.00
Fe5798 Fe    0.25000   0.61461   0.81250   0.00000  Uiso   1.00
Fe5799 Fe    0.37500   0.51039   0.93750   0.00000  Uiso   1.00
Fe5800 Fe    0.25000   0.63539   0.93750   0.00000  Uiso   1.00
C5801  C     0.65202   0.53174   0.79052   0.00000  Uiso   1.00
C5802  C     0.65017   0.56671   0.96983   0.00000  Uiso   1.00
C5803  C     0.65898   0.55333   0.75529   0.00000  Uiso   1.00
C5804  C     0.67378   0.56104   0.75552   0.00000  Uiso   1.00
C5805  C     0.69582   0.53368   0.77869   0.00000  Uiso   1.00
C5806  C     0.68211   0.53221   0.78420   0.00000  Uiso   1.00
N5807  N     0.63891   0.53177   0.77682   0.00000  Uiso   1.00
N5808  N     0.63776   0.55338   0.98314   0.00000  Uiso   1.00
H5809  H     0.65568   0.51889   0.81958   0.00000  Uiso   1.00
H5810  H     0.65230   0.58257   0.94085   0.00000  Uiso   1.00
H5811  H     0.70151   0.51398   0.79829   0.00000  Uiso   1.00
H5812  H     0.67842   0.51152   0.80758   0.00000  Uiso   1.00
C5813  C     0.52702   0.65674   0.79052   0.00000  Uiso   1.00
C5814  C     0.52517   0.69171   0.96983   0.00000  Uiso   1.00
C5815  C     0.53398   0.67833   0.75529   0.00000  Uiso   1.00
C5816  C     0.54878   0.68604   0.75552   0.00000  Uiso   1.00
C5817  C     0.57082   0.65868   0.77869   0.00000  Uiso   1.00
C5818  C     0.55711   0.65721   0.78420   0.00000  Uiso   1.00
N5819  N     0.51391   0.65677   0.77682   0.00000  Uiso   1.00
N5820  N     0.51276   0.67838   0.98314   0.00000  Uiso   1.00
H5821  H     0.53068   0.64389   0.81958   0.00000  Uiso   1.00
H5822  H     0.52730   0.70757   0.94085   0.00000  Uiso   1.00
H5823  H     0.57651   0.63898   0.79829   0.00000  Uiso   1.00
H5824  H     0.55342   0.63652   0.80758   0.00000  Uiso   1.00
C5825  C     0.59798   0.53174   0.83448   0.00000  Uiso   1.00
C5826  C     0.59983   0.56671   0.90517   0.00000  Uiso   1.00
C5827  C     0.59102   0.55333   0.86971   0.00000  Uiso   1.00
C5828  C     0.57622   0.56104   0.86948   0.00000  Uiso   1.00
C5829  C     0.55418   0.53368   0.84631   0.00000  Uiso   1.00
C5830  C     0.56789   0.53221   0.84080   0.00000  Uiso   1.00
N5831  N     0.61109   0.53177   0.84818   0.00000  Uiso   1.00
N5832  N     0.61224   0.55338   0.89186   0.00000  Uiso   1.00
H5833  H     0.59432   0.51889   0.80542   0.00000  Uiso   1.00
H5834  H     0.59770   0.58257   0.93415   0.00000  Uiso   1.00
H5835  H     0.54849   0.51398   0.82671   0.00000  Uiso   1.00
H5836  H     0.57158   0.51152   0.81742   0.00000  Uiso   1.00
C5837  C     0.72298   0.65674   0.83448   0.00000  Uiso   1.00
C5838  C     0.72483   0.69171   0.90517   0.00000  Uiso   1.00
C5839  C     0.71602   0.67833   0.86971   0.00000  Uiso   1.00
C5840  C     0.70122   0.68604   0.86948   0.00000  Uiso   1.00
C5841  C     0.67918   0.65868   0.84631   0.00000  Uiso   1.00
C5842  C     0.69289   0.65721   0.84080   0.00000  Uiso   1.00
N5843  N     0.73609   0.65677   0.84818   0.00000  Uiso   1.00
N5844  N     0.73724   0.67838   0.89186   0.00000  Uiso   1.00
H5845  H     0.71932   0.64389   0.80542   0.00000  Uiso   1.00
H5846  H     0.72270   0.70757   0.93415   0.00000  Uiso   1.00
H5847  H     0.67349   0.63898   0.82671   0.00000  Uiso   1.00
H5848  H     0.69658   0.63652   0.81742   0.00000  Uiso   1.00
C5849  C     0.59798   0.71826   0.95948   0.00000  Uiso   1.00
C5850  C     0.59983   0.68329   0.78017   0.00000  Uiso   1.00
C5851  C     0.59102   0.69667   0.99471   0.00000  Uiso   1.00
C5852  C     0.57622   0.68896   0.99448   0.00000  Uiso   1.00
C5853  C     0.55418   0.71632   0.97131   0.00000  Uiso   1.00
C5854  C     0.56789   0.71779   0.96580   0.00000  Uiso   1.00
N5855  N     0.61109   0.71823   0.97318   0.00000  Uiso   1.00
N5856  N     0.61224   0.69662   0.76686   0.00000  Uiso   1.00
H5857  H     0.59432   0.73111   0.93042   0.00000  Uiso   1.00
H5858  H     0.59770   0.66743   0.80915   0.00000  Uiso   1.00
H5859  H     0.54849   0.73602   0.95171   0.00000  Uiso   1.00
H5860  H     0.57158   0.73848   0.94242   0.00000  Uiso   1.00
C5861  C     0.72298   0.59326   0.95948   0.00000  Uiso   1.00
C5862  C     0.72483   0.55829   0.78017   0.00000  Uiso   1.00
C5863  C     0.71602   0.57167   0.99471   0.00000  Uiso   1.00
C5864  C     0.70122   0.56396   0.99448   0.00000  Uiso   1.00
C5865  C     0.67918   0.59132   0.97131   0.00000  Uiso   1.00
C5866  C     0.69289   0.59279   0.96580   0.00000  Uiso   1.00
N5867  N     0.73609   0.59323   0.97318   0.00000  Uiso   1.00
N5868  N     0.73724   0.57162   0.76686   0.00000  Uiso   1.00
H5869  H     0.71932   0.60611   0.93042   0.00000  Uiso   1.00
H5870  H     0.72270   0.54243   0.80915   0.00000  Uiso   1.00
H5871  H     0.67349   0.61102   0.95171   0.00000  Uiso   1.00
H5872  H     0.69658   0.61348   0.94242   0.00000  Uiso   1.00
C5873  C     0.65202   0.71826   0.91552   0.00000  Uiso   1.00
C5874  C     0.65017   0.68329   0.84483   0.00000  Uiso   1.00
C5875  C     0.65898   0.69667   0.88029   0.00000  Uiso   1.00
C5876  C     0.67378   0.68896   0.88052   0.00000  Uiso   1.00
C5877  C     0.69582   0.71632   0.90369   0.00000  Uiso   1.00
C5878  C     0.68211   0.71779   0.90920   0.00000  Uiso   1.00
N5879  N     0.63891   0.71823   0.90182   0.00000  Uiso   1.00
N5880  N     0.63776   0.69662   0.85814   0.00000  Uiso   1.00
H5881  H     0.65568   0.73111   0.94458   0.00000  Uiso   1.00
H5882  H     0.65230   0.66743   0.81585   0.00000  Uiso   1.00
H5883  H     0.70151   0.73602   0.92329   0.00000  Uiso   1.00
H5884  H     0.67842   0.73848   0.93258   0.00000  Uiso   1.00
C5885  C     0.52702   0.59326   0.91552   0.00000  Uiso   1.00
C5886  C     0.52517   0.55829   0.84483   0.00000  Uiso   1.00
C5887  C     0.53398   0.57167   0.88029   0.00000  Uiso   1.00
C5888  C     0.54878   0.56396   0.88052   0.00000  Uiso   1.00
C5889  C     0.57082   0.59132   0.90369   0.00000  Uiso   1.00
C5890  C     0.55711   0.59279   0.90920   0.00000  Uiso   1.00
N5891  N     0.51391   0.59323   0.90182   0.00000  Uiso   1.00
N5892  N     0.51276   0.57162   0.85814   0.00000  Uiso   1.00
H5893  H     0.53068   0.60611   0.94458   0.00000  Uiso   1.00
H5894  H     0.52730   0.54243   0.81585   0.00000  Uiso   1.00
H5895  H     0.57651   0.61102   0.92329   0.00000  Uiso   1.00
H5896  H     0.55342   0.61348   0.93258   0.00000  Uiso   1.00
Fe5897 Fe    0.62500   0.73961   0.81250   0.00000  Uiso   1.00
Fe5898 Fe    0.50000   0.61461   0.81250   0.00000  Uiso   1.00
Fe5899 Fe    0.62500   0.51039   0.93750   0.00000  Uiso   1.00
Fe5900 Fe    0.50000   0.63539   0.93750   0.00000  Uiso   1.00
C5901  C     0.90202   0.53174   0.79052   0.00000  Uiso   1.00
C5902  C     0.90017   0.56671   0.96983   0.00000  Uiso   1.00
C5903  C     0.90898   0.55333   0.75529   0.00000  Uiso   1.00
C5904  C     0.92378   0.56104   0.75552   0.00000  Uiso   1.00
C5905  C     0.94582   0.53368   0.77869   0.00000  Uiso   1.00
C5906  C     0.93211   0.53221   0.78420   0.00000  Uiso   1.00
N5907  N     0.88891   0.53177   0.77682   0.00000  Uiso   1.00
N5908  N     0.88776   0.55338   0.98314   0.00000  Uiso   1.00
H5909  H     0.90568   0.51889   0.81958   0.00000  Uiso   1.00
H5910  H     0.90230   0.58257   0.94085   0.00000  Uiso   1.00
H5911  H     0.95151   0.51398   0.79829   0.00000  Uiso   1.00
H5912  H     0.92842   0.51152   0.80758   0.00000  Uiso   1.00
C5913  C     0.77702   0.65674   0.79052   0.00000  Uiso   1.00
C5914  C     0.77517   0.69171   0.96983   0.00000  Uiso   1.00
C5915  C     0.78398   0.67833   0.75529   0.00000  Uiso   1.00
C5916  C     0.79878   0.68604   0.75552   0.00000  Uiso   1.00
C5917  C     0.82082   0.65868   0.77869   0.00000  Uiso   1.00
C5918  C     0.80711   0.65721   0.78420   0.00000  Uiso   1.00
N5919  N     0.76391   0.65677   0.77682   0.00000  Uiso   1.00
N5920  N     0.76276   0.67838   0.98314   0.00000  Uiso   1.00
H5921  H     0.78068   0.64389   0.81958   0.00000  Uiso   1.00
H5922  H     0.77730   0.70757   0.94085   0.00000  Uiso   1.00
H5923  H     0.82651   0.63898   0.79829   0.00000  Uiso   1.00
H5924  H     0.80342   0.63652   0.80758   0.00000  Uiso   1.00
C5925  C     0.84798   0.53174   0.83448   0.00000  Uiso   1.00
C5926  C     0.84983   0.56671   0.90517   0.00000  Uiso   1.00
C5927  C     0.84102   0.55333   0.86971   0.00000  Uiso   1.00
C5928  C     0.82622   0.56104   0.86948   0.00000  Uiso   1.00
C5929  C     0.80418   0.53368   0.84631   0.00000  Uiso   1.00
C5930  C     0.81789   0.53221   0.84080   0.00000  Uiso   1.00
N5931  N     0.86109   0.53177   0.84818   0.00000  Uiso   1.00
N5932  N     0.86224   0.55338   0.89186   0.00000  Uiso   1.00
H5933  H     0.84432   0.51889   0.80542   0.00000  Uiso   1.00
H5934  H     0.84770   0.58257   0.93415   0.00000  Uiso   1.00
H5935  H     0.79849   0.51398   0.82671   0.00000  Uiso   1.00
H5936  H     0.82158   0.51152   0.81742   0.00000  Uiso   1.00
C5937  C     0.97298   0.65674   0.83448   0.00000  Uiso   1.00
C5938  C     0.97483   0.69171   0.90517   0.00000  Uiso   1.00
C5939  C     0.96602   0.67833   0.86971   0.00000  Uiso   1.00
C5940  C     0.95122   0.68604   0.86948   0.00000  Uiso   1.00
C5941  C     0.92918   0.65868   0.84631   0.00000  Uiso   1.00
C5942  C     0.94289   0.65721   0.84080   0.00000  Uiso   1.00
N5943  N     0.98609   0.65677   0.84818   0.00000  Uiso   1.00
N5944  N     0.98724   0.67838   0.89186   0.00000  Uiso   1.00
H5945  H     0.96932   0.64389   0.80542   0.00000  Uiso   1.00
H5946  H     0.97270   0.70757   0.93415   0.00000  Uiso   1.00
H5947  H     0.92349   0.63898   0.82671   0.00000  Uiso   1.00
H5948  H     0.94658   0.63652   0.81742   0.00000  Uiso   1.00
C5949  C     0.84798   0.71826   0.95948   0.00000  Uiso   1.00
C5950  C     0.84983   0.68329   0.78017   0.00000  Uiso   1.00
C5951  C     0.84102   0.69667   0.99471   0.00000  Uiso   1.00
C5952  C     0.82622   0.68896   0.99448   0.00000  Uiso   1.00
C5953  C     0.80418   0.71632   0.97131   0.00000  Uiso   1.00
C5954  C     0.81789   0.71779   0.96580   0.00000  Uiso   1.00
N5955  N     0.86109   0.71823   0.97318   0.00000  Uiso   1.00
N5956  N     0.86224   0.69662   0.76686   0.00000  Uiso   1.00
H5957  H     0.84432   0.73111   0.93042   0.00000  Uiso   1.00
H5958  H     0.84770   0.66743   0.80915   0.00000  Uiso   1.00
H5959  H     0.79849   0.73602   0.95171   0.00000  Uiso   1.00
H5960  H     0.82158   0.73848   0.94242   0.00000  Uiso   1.00
C5961  C     0.97298   0.59326   0.95948   0.00000  Uiso   1.00
C5962  C     0.97483   0.55829   0.78017   0.00000  Uiso   1.00
C5963  C     0.96602   0.57167   0.99471   0.00000  Uiso   1.00
C5964  C     0.95122   0.56396   0.99448   0.00000  Uiso   1.00
C5965  C     0.92918   0.59132   0.97131   0.00000  Uiso   1.00
C5966  C     0.94289   0.59279   0.96580   0.00000  Uiso   1.00
N5967  N     0.98609   0.59323   0.97318   0.00000  Uiso   1.00
N5968  N     0.98724   0.57162   0.76686   0.00000  Uiso   1.00
H5969  H     0.96932   0.60611   0.93042   0.00000  Uiso   1.00
H5970  H     0.97270   0.54243   0.80915   0.00000  Uiso   1.00
H5971  H     0.92349   0.61102   0.95171   0.00000  Uiso   1.00
H5972  H     0.94658   0.61348   0.94242   0.00000  Uiso   1.00
C5973  C     0.90202   0.71826   0.91552   0.00000  Uiso   1.00
C5974  C     0.90017   0.68329   0.84483   0.00000  Uiso   1.00
C5975  C     0.90898   0.69667   0.88029   0.00000  Uiso   1.00
C5976  C     0.92378   0.68896   0.88052   0.00000  Uiso   1.00
C5977  C     0.94582   0.71632   0.90369   0.00000  Uiso   1.00
C5978  C     0.93211   0.71779   0.90920   0.00000  Uiso   1.00
N5979  N     0.88891   0.71823   0.90182   0.00000  Uiso   1.00
N5980  N     0.88776   0.69662   0.85814   0.00000  Uiso   1.00
H5981  H     0.90568   0.73111   0.94458   0.00000  Uiso   1.00
H5982  H     0.90230   0.66743   0.81585   0.00000  Uiso   1.00
H5983  H     0.95151   0.73602   0.92329   0.00000  Uiso   1.00
H5984  H     0.92842   0.73848   0.93258   0.00000  Uiso   1.00
C5985  C     0.77702   0.59326   0.91552   0.00000  Uiso   1.00
C5986  C     0.77517   0.55829   0.84483   0.00000  Uiso   1.00
C5987  C     0.78398   0.57167   0.88029   0.00000  Uiso   1.00
C5988  C     0.79878   0.56396   0.88052   0.00000  Uiso   1.00
C5989  C     0.82082   0.59132   0.90369   0.00000  Uiso   1.00
C5990  C     0.80711   0.59279   0.90920   0.00000  Uiso   1.00
N5991  N     0.76391   0.59323   0.90182   0.00000  Uiso   1.00
N5992  N     0.76276   0.57162   0.85814   0.00000  Uiso   1.00
H5993  H     0.78068   0.60611   0.94458   0.00000  Uiso   1.00
H5994  H     0.77730   0.54243   0.81585   0.00000  Uiso   1.00
H5995  H     0.82651   0.61102   0.92329   0.00000  Uiso   1.00
H5996  H     0.80342   0.61348   0.93258   0.00000  Uiso   1.00
Fe5997 Fe    0.87500   0.73961   0.81250   0.00000  Uiso   1.00
Fe5998 Fe    0.75000   0.61461   0.81250   0.00000  Uiso   1.00
Fe5999 Fe    0.87500   0.51039   0.93750   0.00000  Uiso   1.00
Fe6000 Fe    0.75000   0.63539   0.93750   0.00000  Uiso   1.00
C6001  C     0.15202   0.78174   0.79052   0.00000  Uiso   1.00
C6002  C     0.15017   0.81671   0.96983   0.00000  Uiso   1.00
C6003  C     0.15898   0.80333   0.75529   0.00000  Uiso   1.00
C6004  C     0.17378   0.81104   0.75552   0.00000  Uiso   1.00
C6005  C     0.19582   0.78368   0.77869   0.00000  Uiso   1.00
C6006  C     0.18211   0.78221   0.78420   0.00000  Uiso   1.00
N6007  N     0.13891   0.78177   0.77682   0.00000  Uiso   1.00
N6008  N     0.13776   0.80338   0.98314   0.00000  Uiso   1.00
H6009  H     0.15568   0.76889   0.81958   0.00000  Uiso   1.00
H6010  H     0.15230   0.83257   0.94085   0.00000  Uiso   1.00
H6011  H     0.20151   0.76398   0.79829   0.00000  Uiso   1.00
H6012  H     0.17842   0.76152   0.80758   0.00000  Uiso   1.00
C6013  C     0.02702   0.90674   0.79052   0.00000  Uiso   1.00
C6014  C     0.02517   0.94171   0.96983   0.00000  Uiso   1.00
C6015  C     0.03398   0.92833   0.75529   0.00000  Uiso   1.00
C6016  C     0.04878   0.93604   0.75552   0.00000  Uiso   1.00
C6017  C     0.07082   0.90868   0.77869   0.00000  Uiso   1.00
C6018  C     0.05711   0.90721   0.78420   0.00000  Uiso   1.00
N6019  N     0.01391   0.90677   0.77682   0.00000  Uiso   1.00
N6020  N     0.01276   0.92838   0.98314   0.00000  Uiso   1.00
H6021  H     0.03068   0.89389   0.81958   0.00000  Uiso   1.00
H6022  H     0.02730   0.95757   0.94085   0.00000  Uiso   1.00
H6023  H     0.07651   0.88898   0.79829   0.00000  Uiso   1.00
H6024  H     0.05342   0.88652   0.80758   0.00000  Uiso   1.00
C6025  C     0.09798   0.78174   0.83448   0.00000  Uiso   1.00
C6026  C     0.09983   0.81671   0.90517   0.00000  Uiso   1.00
C6027  C     0.09102   0.80333   0.86971   0.00000  Uiso   1.00
C6028  C     0.07622   0.81104   0.86948   0.00000  Uiso   1.00
C6029  C     0.05418   0.78368   0.84631   0.00000  Uiso   1.00
C6030  C     0.06789   0.78221   0.84080   0.00000  Uiso   1.00
N6031  N     0.11109   0.78177   0.84818   0.00000  Uiso   1.00
N6032  N     0.11224   0.80338   0.89186   0.00000  Uiso   1.00
H6033  H     0.09432   0.76889   0.80542   0.00000  Uiso   1.00
H6034  H     0.09770   0.83257   0.93415   0.00000  Uiso   1.00
H6035  H     0.04849   0.76398   0.82671   0.00000  Uiso   1.00
H6036  H     0.07158   0.76152   0.81742   0.00000  Uiso   1.00
C6037  C     0.22298   0.90674   0.83448   0.00000  Uiso   1.00
C6038  C     0.22483   0.94171   0.90517   0.00000  Uiso   1.00
C6039  C     0.21602   0.92833   0.86971   0.00000  Uiso   1.00
C6040  C     0.20122   0.93604   0.86948   0.00000  Uiso   1.00
C6041  C     0.17918   0.90868   0.84631   0.00000  Uiso   1.00
C6042  C     0.19289   0.90721   0.84080   0.00000  Uiso   1.00
N6043  N     0.23609   0.90677   0.84818   0.00000  Uiso   1.00
N6044  N     0.23724   0.92838   0.89186   0.00000  Uiso   1.00
H6045  H     0.21932   0.89389   0.80542   0.00000  Uiso   1.00
H6046  H     0.22270   0.95757   0.93415   0.00000  Uiso   1.00
H6047  H     0.17349   0.88898   0.82671   0.00000  Uiso   1.00
H6048  H     0.19658   0.88652   0.81742   0.00000  Uiso   1.00
C6049  C     0.09798   0.96826   0.95948   0.00000  Uiso   1.00
C6050  C     0.09983   0.93329   0.78017   0.00000  Uiso   1.00
C6051  C     0.09102   0.94667   0.99471   0.00000  Uiso   1.00
C6052  C     0.07622   0.93896   0.99448   0.00000  Uiso   1.00
C6053  C     0.05418   0.96632   0.97131   0.00000  Uiso   1.00
C6054  C     0.06789   0.96779   0.96580   0.00000  Uiso   1.00
N6055  N     0.11109   0.96823   0.97318   0.00000  Uiso   1.00
N6056  N     0.11224   0.94662   0.76686   0.00000  Uiso   1.00
H6057  H     0.09432   0.98111   0.93042   0.00000  Uiso   1.00
H6058  H     0.09770   0.91743   0.80915   0.00000  Uiso   1.00
H6059  H     0.04849   0.98602   0.95171   0.00000  Uiso   1.00
H6060  H     0.07158   0.98848   0.94242   0.00000  Uiso   1.00
C6061  C     0.22298   0.84326   0.95948   0.00000  Uiso   1.00
C6062  C     0.22483   0.80829   0.78017   0.00000  Uiso   1.00
C6063  C     0.21602   0.82167   0.99471   0.00000  Uiso   1.00
C6064  C     0.20122   0.81396   0.99448   0.00000  Uiso   1.00
C6065  C     0.17918   0.84132   0.97131   0.00000  Uiso   1.00
C6066  C     0.19289   0.84279   0.96580   0.00000  Uiso   1.00
N6067  N     0.23609   0.84323   0.97318   0.00000  Uiso   1.00
N6068  N     0.23724   0.82162   0.76686   0.00000  Uiso   1.00
H6069  H     0.21932   0.85611   0.93042   0.00000  Uiso   1.00
H6070  H     0.22270   0.79243   0.80915   0.00000  Uiso   1.00
H6071  H     0.17349   0.86102   0.95171   0.00000  Uiso   1.00
H6072  H     0.19658   0.86348   0.94242   0.00000  Uiso   1.00
C6073  C     0.15202   0.96826   0.91552   0.00000  Uiso   1.00
C6074  C     0.15017   0.93329   0.84483   0.00000  Uiso   1.00
C6075  C     0.15898   0.94667   0.88029   0.00000  Uiso   1.00
C6076  C     0.17378   0.93896   0.88052   0.00000  Uiso   1.00
C6077  C     0.19582   0.96632   0.90369   0.00000  Uiso   1.00
C6078  C     0.18211   0.96779   0.90920   0.00000  Uiso   1.00
N6079  N     0.13891   0.96823   0.90182   0.00000  Uiso   1.00
N6080  N     0.13776   0.94662   0.85814   0.00000  Uiso   1.00
H6081  H     0.15568   0.98111   0.94458   0.00000  Uiso   1.00
H6082  H     0.15230   0.91743   0.81585   0.00000  Uiso   1.00
H6083  H     0.20151   0.98602   0.92329   0.00000  Uiso   1.00
H6084  H     0.17842   0.98848   0.93258   0.00000  Uiso   1.00
C6085  C     0.02702   0.84326   0.91552   0.00000  Uiso   1.00
C6086  C     0.02517   0.80829   0.84483   0.00000  Uiso   1.00
C6087  C     0.03398   0.82167   0.88029   0.00000  Uiso   1.00
C6088  C     0.04878   0.81396   0.88052   0.00000  Uiso   1.00
C6089  C     0.07082   0.84132   0.90369   0.00000  Uiso   1.00
C6090  C     0.05711   0.84279   0.90920   0.00000  Uiso   1.00
N6091  N     0.01391   0.84323   0.90182   0.00000  Uiso   1.00
N6092  N     0.01276   0.82162   0.85814   0.00000  Uiso   1.00
H6093  H     0.03068   0.85611   0.94458   0.00000  Uiso   1.00
H6094  H     0.02730   0.79243   0.81585   0.00000  Uiso   1.00
H6095  H     0.07651   0.86102   0.92329   0.00000  Uiso   1.00
H6096  H     0.05342   0.86348   0.93258   0.00000  Uiso   1.00
Fe6097 Fe    0.12500   0.98961   0.81250   0.00000  Uiso   1.00
Fe6098 Fe    0.00000   0.86461   0.81250   0.00000  Uiso   1.00
Fe6099 Fe    0.12500   0.76039   0.93750   0.00000  Uiso   1.00
Fe6100 Fe   -0.00000   0.88539   0.93750   0.00000  Uiso   1.00
C6101  C     0.40202   0.78174   0.79052   0.00000  Uiso   1.00
C6102  C     0.40017   0.81671   0.96983   0.00000  Uiso   1.00
C6103  C     0.40898   0.80333   0.75529   0.00000  Uiso   1.00
C6104  C     0.42378   0.81104   0.75552   0.00000  Uiso   1.00
C6105  C     0.44582   0.78368   0.77869   0.00000  Uiso   1.00
C6106  C     0.43211   0.78221   0.78420   0.00000  Uiso   1.00
N6107  N     0.38891   0.78177   0.77682   0.00000  Uiso   1.00
N6108  N     0.38776   0.80338   0.98314   0.00000  Uiso   1.00
H6109  H     0.40568   0.76889   0.81958   0.00000  Uiso   1.00
H6110  H     0.40230   0.83257   0.94085   0.00000  Uiso   1.00
H6111  H     0.45151   0.76398   0.79829   0.00000  Uiso   1.00
H6112  H     0.42842   0.76152   0.80758   0.00000  Uiso   1.00
C6113  C     0.27702   0.90674   0.79052   0.00000  Uiso   1.00
C6114  C     0.27517   0.94171   0.96983   0.00000  Uiso   1.00
C6115  C     0.28398   0.92833   0.75529   0.00000  Uiso   1.00
C6116  C     0.29878   0.93604   0.75552   0.00000  Uiso   1.00
C6117  C     0.32082   0.90868   0.77869   0.00000  Uiso   1.00
C6118  C     0.30711   0.90721   0.78420   0.00000  Uiso   1.00
N6119  N     0.26391   0.90677   0.77682   0.00000  Uiso   1.00
N6120  N     0.26276   0.92838   0.98314   0.00000  Uiso   1.00
H6121  H     0.28068   0.89389   0.81958   0.00000  Uiso   1.00
H6122  H     0.27730   0.95757   0.94085   0.00000  Uiso   1.00
H6123  H     0.32651   0.88898   0.79829   0.00000  Uiso   1.00
H6124  H     0.30342   0.88652   0.80758   0.00000  Uiso   1.00
C6125  C     0.34798   0.78174   0.83448   0.00000  Uiso   1.00
C6126  C     0.34983   0.81671   0.90517   0.00000  Uiso   1.00
C6127  C     0.34102   0.80333   0.86971   0.00000  Uiso   1.00
C6128  C     0.32622   0.81104   0.86948   0.00000  Uiso   1.00
C6129  C     0.30418   0.78368   0.84631   0.00000  Uiso   1.00
C6130  C     0.31789   0.78221   0.84080   0.00000  Uiso   1.00
N6131  N     0.36109   0.78177   0.84818   0.00000  Uiso   1.00
N6132  N     0.36224   0.80338   0.89186   0.00000  Uiso   1.00
H6133  H     0.34432   0.76889   0.80542   0.00000  Uiso   1.00
H6134  H     0.34770   0.83257   0.93415   0.00000  Uiso   1.00
H6135  H     0.29849   0.76398   0.82671   0.00000  Uiso   1.00
H6136  H     0.32158   0.76152   0.81742   0.00000  Uiso   1.00
C6137  C     0.47298   0.90674   0.83448   0.00000  Uiso   1.00
C6138  C     0.47483   0.94171   0.90517   0.00000  Uiso   1.00
C6139  C     0.46602   0.92833   0.86971   0.00000  Uiso   1.00
C6140  C     0.45122   0.93604   0.86948   0.00000  Uiso   1.00
C6141  C     0.42918   0.90868   0.84631   0.00000  Uiso   1.00
C6142  C     0.44289   0.90721   0.84080   0.00000  Uiso   1.00
N6143  N     0.48609   0.90677   0.84818   0.00000  Uiso   1.00
N6144  N     0.48724   0.92838   0.89186   0.00000  Uiso   1.00
H6145  H     0.46932   0.89389   0.80542   0.00000  Uiso   1.00
H6146  H     0.47270   0.95757   0.93415   0.00000  Uiso   1.00
H6147  H     0.42349   0.88898   0.82671   0.00000  Uiso   1.00
H6148  H     0.44658   0.88652   0.81742   0.00000  Uiso   1.00
C6149  C     0.34798   0.96826   0.95948   0.00000  Uiso   1.00
C6150  C     0.34983   0.93329   0.78017   0.00000  Uiso   1.00
C6151  C     0.34102   0.94667   0.99471   0.00000  Uiso   1.00
C6152  C     0.32622   0.93896   0.99448   0.00000  Uiso   1.00
C6153  C     0.30418   0.96632   0.97131   0.00000  Uiso   1.00
C6154  C     0.31789   0.96779   0.96580   0.00000  Uiso   1.00
N6155  N     0.36109   0.96823   0.97318   0.00000  Uiso   1.00
N6156  N     0.36224   0.94662   0.76686   0.00000  Uiso   1.00
H6157  H     0.34432   0.98111   0.93042   0.00000  Uiso   1.00
H6158  H     0.34770   0.91743   0.80915   0.00000  Uiso   1.00
H6159  H     0.29849   0.98602   0.95171   0.00000  Uiso   1.00
H6160  H     0.32158   0.98848   0.94242   0.00000  Uiso   1.00
C6161  C     0.47298   0.84326   0.95948   0.00000  Uiso   1.00
C6162  C     0.47483   0.80829   0.78017   0.00000  Uiso   1.00
C6163  C     0.46602   0.82167   0.99471   0.00000  Uiso   1.00
C6164  C     0.45122   0.81396   0.99448   0.00000  Uiso   1.00
C6165  C     0.42918   0.84132   0.97131   0.00000  Uiso   1.00
C6166  C     0.44289   0.84279   0.96580   0.00000  Uiso   1.00
N6167  N     0.48609   0.84323   0.97318   0.00000  Uiso   1.00
N6168  N     0.48724   0.82162   0.76686   0.00000  Uiso   1.00
H6169  H     0.46932   0.85611   0.93042   0.00000  Uiso   1.00
H6170  H     0.47270   0.79243   0.80915   0.00000  Uiso   1.00
H6171  H     0.42349   0.86102   0.95171   0.00000  Uiso   1.00
H6172  H     0.44658   0.86348   0.94242   0.00000  Uiso   1.00
C6173  C     0.40202   0.96826   0.91552   0.00000  Uiso   1.00
C6174  C     0.40017   0.93329   0.84483   0.00000  Uiso   1.00
C6175  C     0.40898   0.94667   0.88029   0.00000  Uiso   1.00
C6176  C     0.42378   0.93896   0.88052   0.00000  Uiso   1.00
C6177  C     0.44582   0.96632   0.90369   0.00000  Uiso   1.00
C6178  C     0.43211   0.96779   0.90920   0.00000  Uiso   1.00
N6179  N     0.38891   0.96823   0.90182   0.00000  Uiso   1.00
N6180  N     0.38776   0.94662   0.85814   0.00000  Uiso   1.00
H6181  H     0.40568   0.98111   0.94458   0.00000  Uiso   1.00
H6182  H     0.40230   0.91743   0.81585   0.00000  Uiso   1.00
H6183  H     0.45151   0.98602   0.92329   0.00000  Uiso   1.00
H6184  H     0.42842   0.98848   0.93258   0.00000  Uiso   1.00
C6185  C     0.27702   0.84326   0.91552   0.00000  Uiso   1.00
C6186  C     0.27517   0.80829   0.84483   0.00000  Uiso   1.00
C6187  C     0.28398   0.82167   0.88029   0.00000  Uiso   1.00
C6188  C     0.29878   0.81396   0.88052   0.00000  Uiso   1.00
C6189  C     0.32082   0.84132   0.90369   0.00000  Uiso   1.00
C6190  C     0.30711   0.84279   0.90920   0.00000  Uiso   1.00
N6191  N     0.26391   0.84323   0.90182   0.00000  Uiso   1.00
N6192  N     0.26276   0.82162   0.85814   0.00000  Uiso   1.00
H6193  H     0.28068   0.85611   0.94458   0.00000  Uiso   1.00
H6194  H     0.27730   0.79243   0.81585   0.00000  Uiso   1.00
H6195  H     0.32651   0.86102   0.92329   0.00000  Uiso   1.00
H6196  H     0.30342   0.86348   0.93258   0.00000  Uiso   1.00
Fe6197 Fe    0.37500   0.98961   0.81250   0.00000  Uiso   1.00
Fe6198 Fe    0.25000   0.86461   0.81250   0.00000  Uiso   1.00
Fe6199 Fe    0.37500   0.76039   0.93750   0.00000  Uiso   1.00
Fe6200 Fe    0.25000   0.88539   0.93750   0.00000  Uiso   1.00
C6201  C     0.65202   0.78174   0.79052   0.00000  Uiso   1.00
C6202  C     0.65017   0.81671   0.96983   0.00000  Uiso   1.00
C6203  C     0.65898   0.80333   0.75529   0.00000  Uiso   1.00
C6204  C     0.67378   0.81104   0.75552   0.00000  Uiso   1.00
C6205  C     0.69582   0.78368   0.77869   0.00000  Uiso   1.00
C6206  C     0.68211   0.78221   0.78420   0.00000  Uiso   1.00
N6207  N     0.63891   0.78177   0.77682   0.00000  Uiso   1.00
N6208  N     0.63776   0.80338   0.98314   0.00000  Uiso   1.00
H6209  H     0.65568   0.76889   0.81958   0.00000  Uiso   1.00
H6210  H     0.65230   0.83257   0.94085   0.00000  Uiso   1.00
H6211  H     0.70151   0.76398   0.79829   0.00000  Uiso   1.00
H6212  H     0.67842   0.76152   0.80758   0.00000  Uiso   1.00
C6213  C     0.52702   0.90674   0.79052   0.00000  Uiso   1.00
C6214  C     0.52517   0.94171   0.96983   0.00000  Uiso   1.00
C6215  C     0.53398   0.92833   0.75529   0.00000  Uiso   1.00
C6216  C     0.54878   0.93604   0.75552   0.00000  Uiso   1.00
C6217  C     0.57082   0.90868   0.77869   0.00000  Uiso   1.00
C6218  C     0.55711   0.90721   0.78420   0.00000  Uiso   1.00
N6219  N     0.51391   0.90677   0.77682   0.00000  Uiso   1.00
N6220  N     0.51276   0.92838   0.98314   0.00000  Uiso   1.00
H6221  H     0.53068   0.89389   0.81958   0.00000  Uiso   1.00
H6222  H     0.52730   0.95757   0.94085   0.00000  Uiso   1.00
H6223  H     0.57651   0.88898   0.79829   0.00000  Uiso   1.00
H6224  H     0.55342   0.88652   0.80758   0.00000  Uiso   1.00
C6225  C     0.59798   0.78174   0.83448   0.00000  Uiso   1.00
C6226  C     0.59983   0.81671   0.90517   0.00000  Uiso   1.00
C6227  C     0.59102   0.80333   0.86971   0.00000  Uiso   1.00
C6228  C     0.57622   0.81104   0.86948   0.00000  Uiso   1.00
C6229  C     0.55418   0.78368   0.84631   0.00000  Uiso   1.00
C6230  C     0.56789   0.78221   0.84080   0.00000  Uiso   1.00
N6231  N     0.61109   0.78177   0.84818   0.00000  Uiso   1.00
N6232  N     0.61224   0.80338   0.89186   0.00000  Uiso   1.00
H6233  H     0.59432   0.76889   0.80542   0.00000  Uiso   1.00
H6234  H     0.59770   0.83257   0.93415   0.00000  Uiso   1.00
H6235  H     0.54849   0.76398   0.82671   0.00000  Uiso   1.00
H6236  H     0.57158   0.76152   0.81742   0.00000  Uiso   1.00
C6237  C     0.72298   0.90674   0.83448   0.00000  Uiso   1.00
C6238  C     0.72483   0.94171   0.90517   0.00000  Uiso   1.00
C6239  C     0.71602   0.92833   0.86971   0.00000  Uiso   1.00
C6240  C     0.70122   0.93604   0.86948   0.00000  Uiso   1.00
C6241  C     0.67918   0.90868   0.84631   0.00000  Uiso   1.00
C6242  C     0.69289   0.90721   0.84080   0.00000  Uiso   1.00
N6243  N     0.73609   0.90677   0.84818   0.00000  Uiso   1.00
N6244  N     0.73724   0.92838   0.89186   0.00000  Uiso   1.00
H6245  H     0.71932   0.89389   0.80542   0.00000  Uiso   1.00
H6246  H     0.72270   0.95757   0.93415   0.00000  Uiso   1.00
H6247  H     0.67349   0.88898   0.82671   0.00000  Uiso   1.00
H6248  H     0.69658   0.88652   0.81742   0.00000  Uiso   1.00
C6249  C     0.59798   0.96826   0.95948   0.00000  Uiso   1.00
C6250  C     0.59983   0.93329   0.78017   0.00000  Uiso   1.00
C6251  C     0.59102   0.94667   0.99471   0.00000  Uiso   1.00
C6252  C     0.57622   0.93896   0.99448   0.00000  Uiso   1.00
C6253  C     0.55418   0.96632   0.97131   0.00000  Uiso   1.00
C6254  C     0.56789   0.96779   0.96580   0.00000  Uiso   1.00
N6255  N     0.61109   0.96823   0.97318   0.00000  Uiso   1.00
N6256  N     0.61224   0.94662   0.76686   0.00000  Uiso   1.00
H6257  H     0.59432   0.98111   0.93042   0.00000  Uiso   1.00
H6258  H     0.59770   0.91743   0.80915   0.00000  Uiso   1.00
H6259  H     0.54849   0.98602   0.95171   0.00000  Uiso   1.00
H6260  H     0.57158   0.98848   0.94242   0.00000  Uiso   1.00
C6261  C     0.72298   0.84326   0.95948   0.00000  Uiso   1.00
C6262  C     0.72483   0.80829   0.78017   0.00000  Uiso   1.00
C6263  C     0.71602   0.82167   0.99471   0.00000  Uiso   1.00
C6264  C     0.70122   0.81396   0.99448   0.00000  Uiso   1.00
C6265  C     0.67918   0.84132   0.97131   0.00000  Uiso   1.00
C6266  C     0.69289   0.84279   0.96580   0.00000  Uiso   1.00
N6267  N     0.73609   0.84323   0.97318   0.00000  Uiso   1.00
N6268  N     0.73724   0.82162   0.76686   0.00000  Uiso   1.00
H6269  H     0.71932   0.85611   0.93042   0.00000  Uiso   1.00
H6270  H     0.72270   0.79243   0.80915   0.00000  Uiso   1.00
H6271  H     0.67349   0.86102   0.95171   0.00000  Uiso   1.00
H6272  H     0.69658   0.86348   0.94242   0.00000  Uiso   1.00
C6273  C     0.65202   0.96826   0.91552   0.00000  Uiso   1.00
C6274  C     0.65017   0.93329   0.84483   0.00000  Uiso   1.00
C6275  C     0.65898   0.94667   0.88029   0.00000  Uiso   1.00
C6276  C     0.67378   0.93896   0.88052   0.00000  Uiso   1.00
C6277  C     0.69582   0.96632   0.90369   0.00000  Uiso   1.00
C6278  C     0.68211   0.96779   0.90920   0.00000  Uiso   1.00
N6279  N     0.63891   0.96823   0.90182   0.00000  Uiso   1.00
N6280  N     0.63776   0.94662   0.85814   0.00000  Uiso   1.00
H6281  H     0.65568   0.98111   0.94458   0.00000  Uiso   1.00
H6282  H     0.65230   0.91743   0.81585   0.00000  Uiso   1.00
H6283  H     0.70151   0.98602   0.92329   0.00000  Uiso   1.00
H6284  H     0.67842   0.98848   0.93258   0.00000  Uiso   1.00
C6285  C     0.52702   0.84326   0.91552   0.00000  Uiso   1.00
C6286  C     0.52517   0.80829   0.84483   0.00000  Uiso   1.00
C6287  C     0.53398   0.82167   0.88029   0.00000  Uiso   1.00
C6288  C     0.54878   0.81396   0.88052   0.00000  Uiso   1.00
C6289  C     0.57082   0.84132   0.90369   0.00000  Uiso   1.00
C6290  C     0.55711   0.84279   0.90920   0.00000  Uiso   1.00
N6291  N     0.51391   0.84323   0.90182   0.00000  Uiso   1.00
N6292  N     0.51276   0.82162   0.85814   0.00000  Uiso   1.00
H6293  H     0.53068   0.85611   0.94458   0.00000  Uiso   1.00
H6294  H     0.52730   0.79243   0.81585   0.00000  Uiso   1.00
H6295  H     0.57651   0.86102   0.92329   0.00000  Uiso   1.00
H6296  H     0.55342   0.86348   0.93258   0.00000  Uiso   1.00
Fe6297 Fe    0.62500   0.98961   0.81250   0.00000  Uiso   1.00
Fe6298 Fe    0.50000   0.86461   0.81250   0.00000  Uiso   1.00
Fe6299 Fe    0.62500   0.76039   0.93750   0.00000  Uiso   1.00
Fe6300 Fe    0.50000   0.88539   0.93750   0.00000  Uiso   1.00
C6301  C     0.90202   0.78174   0.79052   0.00000  Uiso   1.00
C6302  C     0.90017   0.81671   0.96983   0.00000  Uiso   1.00
C6303  C     0.90898   0.80333   0.75529   0.00000  Uiso   1.00
C6304  C     0.92378   0.81104   0.75552   0.00000  Uiso   1.00
C6305  C     0.94582   0.78368   0.77869   0.00000  Uiso   1.00
C6306  C     0.93211   0.78221   0.78420   0.00000  Uiso   1.00
N6307  N     0.88891   0.78177   0.77682   0.00000  Uiso   1.00
N6308  N     0.88776   0.80338   0.98314   0.00000  Uiso   1.00
H6309  H     0.90568   0.76889   0.81958   0.00000  Uiso   1.00
H6310  H     0.90230   0.83257   0.94085   0.00000  Uiso   1.00
H6311  H     0.95151   0.76398   0.79829   0.00000  Uiso   1.00
H6312  H     0.92842   0.76152   0.80758   0.00000  Uiso   1.00
C6313  C     0.77702   0.90674   0.79052   0.00000  Uiso   1.00
C6314  C     0.77517   0.94171   0.96983   0.00000  Uiso   1.00
C6315  C     0.78398   0.92833   0.75529   0.00000  Uiso   1.00
C6316  C     0.79878   0.93604   0.75552   0.00000  Uiso   1.00
C6317  C     0.82082   0.90868   0.77869   0.00000  Uiso   1.00
C6318  C     0.80711   0.90721   0.78420   0.00000  Uiso   1.00
N6319  N     0.76391   0.90677   0.77682   0.00000  Uiso   1.00
N6320  N     0.76276   0.92838   0.98314   0.00000  Uiso   1.00
H6321  H     0.78068   0.89389   0.81958   0.00000  Uiso   1.00
H6322  H     0.77730   0.95757   0.94085   0.00000  Uiso   1.00
H6323  H     0.82651   0.88898   0.79829   0.00000  Uiso   1.00
H6324  H     0.80342   0.88652   0.80758   0.00000  Uiso   1.00
C6325  C     0.84798   0.78174   0.83448   0.00000  Uiso   1.00
C6326  C     0.84983   0.81671   0.90517   0.00000  Uiso   1.00
C6327  C     0.84102   0.80333   0.86971   0.00000  Uiso   1.00
C6328  C     0.82622   0.81104   0.86948   0.00000  Uiso   1.00
C6329  C     0.80418   0.78368   0.84631   0.00000  Uiso   1.00
C6330  C     0.81789   0.78221   0.84080   0.00000  Uiso   1.00
N6331  N     0.86109   0.78177   0.84818   0.00000  Uiso   1.00
N6332  N     0.86224   0.80338   0.89186   0.00000  Uiso   1.00
H6333  H     0.84432   0.76889   0.80542   0.00000  Uiso   1.00
H6334  H     0.84770   0.83257   0.93415   0.00000  Uiso   1.00
H6335  H     0.79849   0.76398   0.82671   0.00000  Uiso   1.00
H6336  H     0.82158   0.76152   0.81742   0.00000  Uiso   1.00
C6337  C     0.97298   0.90674   0.83448   0.00000  Uiso   1.00
C6338  C     0.97483   0.94171   0.90517   0.00000  Uiso   1.00
C6339  C     0.96602   0.92833   0.86971   0.00000  Uiso   1.00
C6340  C     0.95122   0.93604   0.86948   0.00000  Uiso   1.00
C6341  C     0.92918   0.90868   0.84631   0.00000  Uiso   1.00
C6342  C     0.94289   0.90721   0.84080   0.00000  Uiso   1.00
N6343  N     0.98609   0.90677   0.84818   0.00000  Uiso   1.00
N6344  N     0.98724   0.92838   0.89186   0.00000  Uiso   1.00
H6345  H     0.96932   0.89389   0.80542   0.00000  Uiso   1.00
H6346  H     0.97270   0.95757   0.93415   0.00000  Uiso   1.00
H6347  H     0.92349   0.88898   0.82671   0.00000  Uiso   1.00
H6348  H     0.94658   0.88652   0.81742   0.00000  Uiso   1.00
C6349  C     0.84798   0.96826   0.95948   0.00000  Uiso   1.00
C6350  C     0.84983   0.93329   0.78017   0.00000  Uiso   1.00
C6351  C     0.84102   0.94667   0.99471   0.00000  Uiso   1.00
C6352  C     0.82622   0.93896   0.99448   0.00000  Uiso   1.00
C6353  C     0.80418   0.96632   0.97131   0.00000  Uiso   1.00
C6354  C     0.81789   0.96779   0.96580   0.00000  Uiso   1.00
N6355  N     0.86109   0.96823   0.97318   0.00000  Uiso   1.00
N6356  N     0.86224   0.94662   0.76686   0.00000  Uiso   1.00
H6357  H     0.84432   0.98111   0.93042   0.00000  Uiso   1.00
H6358  H     0.84770   0.91743   0.80915   0.00000  Uiso   1.00
H6359  H     0.79849   0.98602   0.95171   0.00000  Uiso   1.00
H6360  H     0.82158   0.98848   0.94242   0.00000  Uiso   1.00
C6361  C     0.97298   0.84326   0.95948   0.00000  Uiso   1.00
C6362  C     0.97483   0.80829   0.78017   0.00000  Uiso   1.00
C6363  C     0.96602   0.82167   0.99471   0.00000  Uiso   1.00
C6364  C     0.95122   0.81396   0.99448   0.00000  Uiso   1.00
C6365  C     0.92918   0.84132   0.97131   0.00000  Uiso   1.00
C6366  C     0.94289   0.84279   0.96580   0.00000  Uiso   1.00
N6367  N     0.98609   0.84323   0.97318   0.00000  Uiso   1.00
N6368  N     0.98724   0.82162   0.76686   0.00000  Uiso   1.00
H6369  H     0.96932   0.85611   0.93042   0.00000  Uiso   1.00
H6370  H     0.97270   0.79243   0.80915   0.00000  Uiso   1.00
H6371  H     0.92349   0.86102   0.95171   0.00000  Uiso   1.00
H6372  H     0.94658   0.86348   0.94242   0.00000  Uiso   1.00
C6373  C     0.90202   0.96826   0.91552   0.00000  Uiso   1.00
C6374  C     0.90017   0.93329   0.84483   0.00000  Uiso   1.00
C6375  C     0.90898   0.94667   0.88029   0.00000  Uiso   1.00
C6376  C     0.92378   0.93896   0.88052   0.00000  Uiso   1.00
C6377  C     0.94582   0.96632   0.90369   0.00000  Uiso   1.00
C6378  C     0.93211   0.96779   0.90920   0.00000  Uiso   1.00
N6379  N     0.88891   0.96823   0.90182   0.00000  Uiso   1.00
N6380  N     0.88776   0.94662   0.85814   0.00000  Uiso   1.00
H6381  H     0.90568   0.98111   0.94458   0.00000  Uiso   1.00
H6382  H     0.90230   0.91743   0.81585   0.00000  Uiso   1.00
H6383  H     0.95151   0.98602   0.92329   0.00000  Uiso   1.00
H6384  H     0.92842   0.98848   0.93258   0.00000  Uiso   1.00
C6385  C     0.77702   0.84326   0.91552   0.00000  Uiso   1.00
C6386  C     0.77517   0.80829   0.84483   0.00000  Uiso   1.00
C6387  C     0.78398   0.82167   0.88029   0.00000  Uiso   1.00
C6388  C     0.79878   0.81396   0.88052   0.00000  Uiso   1.00
C6389  C     0.82082   0.84132   0.90369   0.00000  Uiso   1.00
C6390  C     0.80711   0.84279   0.90920   0.00000  Uiso   1.00
N6391  N     0.76391   0.84323   0.90182   0.00000  Uiso   1.00
N6392  N     0.76276   0.82162   0.85814   0.00000  Uiso   1.00
H6393  H     0.78068   0.85611   0.94458   0.00000  Uiso   1.00
H6394  H     0.77730   0.79243   0.81585   0.00000  Uiso   1.00
H6395  H     0.82651   0.86102   0.92329   0.00000  Uiso   1.00
H6396  H     0.80342   0.86348   0.93258   0.00000  Uiso   1.00
Fe6397 Fe    0.87500   0.98961   0.81250   0.00000  Uiso   1.00
Fe6398 Fe    0.75000   0.86461   0.81250   0.00000  Uiso   1.00
Fe6399 Fe    0.87500   0.76039   0.93750   0.00000  Uiso   1.00
Fe6400 Fe    0.75000   0.88539   0.93750   0.00000  Uiso   1.00
loop_
_geom_bond_atom_site_label_1
_geom_bond_atom_site_label_2
_geom_bond_distance
_geom_bond_site_symmetry_2
_ccdc_geom_bond_type
C1     C3      1.360   .     S
C1     N7      1.360   .     D
C1     H9      0.950   .     S
C2     C1603   1.360   .     S
C2     N8      1.360   .     D
C2     H10     0.950   .     S
C3     C4802   1.360   1_554 S
C3     C4      1.500   .     D
C4     C6      1.390   .     S
C4     C4865   1.390   1_554 S
C5     C6      1.390   .     D
C5     H11     0.950   .     S
C5     C4864   1.390   1_554 S
C6     H12     0.950   .     S
N7     N4808   1.360   1_554 S
N7     Fe1297  2.091   1_545 S
N8     N1607   1.360   .     S
N8     Fe99    2.139   .     S
C13    C15     1.360   .     S
C13    N19     1.360   .     D
C13    H21     0.950   .     S
C14    C1615   1.360   .     S
C14    N20     1.360   .     D
C14    H22     0.950   .     S
C15    C4814   1.360   1_554 S
C15    C16     1.500   .     D
C16    C18     1.390   .     S
C16    C4853   1.390   1_554 S
C17    C18     1.390   .     D
C17    H23     0.950   .     S
C17    C4852   1.390   1_554 S
C18    H24     0.950   .     S
N19    N4820   1.360   1_554 S
N19    Fe98    2.091   .     S
N20    N1619   1.360   .     S
N20    Fe100   2.139   .     S
C25    C27     1.360   .     S
C25    N31     1.360   .     D
C25    H33     0.950   .     S
C26    C27     1.360   .     S
C26    N32     1.360   .     D
C26    H34     0.950   .     S
C27    C28     1.500   .     D
C28    C30     1.390   .     S
C28    C89     1.390   .     S
C29    C30     1.390   .     D
C29    H35     0.950   .     S
C29    C88     1.390   .     S
C30    H36     0.950   .     S
N31    N32     1.360   .     S
N31    Fe1297  2.091   1_545 S
N32    Fe99    2.139   .     S
C37    C39     1.360   .     S
C37    N43     1.360   .     D
C37    H45     0.950   .     S
C38    C39     1.360   .     S
C38    N44     1.360   .     D
C38    H46     0.950   .     S
C39    C40     1.500   .     D
C40    C42     1.390   .     S
C40    C77     1.390   .     S
C41    C42     1.390   .     D
C41    H47     0.950   .     S
C41    C76     1.390   .     S
C42    H48     0.950   .     S
N43    N44     1.360   .     S
N43    Fe198   2.091   .     S
N44    Fe200   2.139   .     S
C49    C51     1.360   .     S
C49    N55     1.360   .     D
C49    H57     0.950   .     S
C50    C4851   1.360   1_554 S
C50    N56     1.360   .     D
C50    H58     0.950   .     S
C51    C1650   1.360   .     S
C51    C52     1.500   .     D
C52    C54     1.390   .     S
C52    C1617   1.390   .     S
C53    C54     1.390   .     D
C53    H59     0.950   .     S
C53    C1616   1.390   .     S
C54    H60     0.950   .     S
N55    N1656   1.360   .     S
N55    Fe499   2.091   .     S
N56    N4855   1.360   1_554 S
N56    Fe97    2.139   .     S
C61    C63     1.360   .     S
C61    N67     1.360   .     D
C61    H69     0.950   .     S
C62    C4863   1.360   1_554 S
C62    N68     1.360   .     D
C62    H70     0.950   .     S
C63    C1662   1.360   .     S
C63    C64     1.500   .     D
C64    C66     1.390   .     S
C64    C1605   1.390   .     S
C65    C66     1.390   .     D
C65    H71     0.950   .     S
C65    C1604   1.390   .     S
C66    H72     0.950   .     S
N67    N1668   1.360   .     S
N67    Fe200   2.091   .     S
N68    N4867   1.360   1_554 S
N68    Fe198   2.139   .     S
C73    C75     1.360   .     S
C73    N79     1.360   .     D
C73    H81     0.950   .     S
C74    C75     1.360   .     S
C74    N80     1.360   .     D
C74    H82     0.950   .     S
C75    C76     1.500   .     D
C76    C78     1.390   .     S
C77    C78     1.390   .     D
C77    H83     0.950   .     S
C78    H84     0.950   .     S
N79    N80     1.360   .     S
N79    Fe499   2.091   .     S
N80    Fe97    2.139   .     S
C85    C87     1.360   .     S
C85    N91     1.360   .     D
C85    H93     0.950   .     S
C86    C87     1.360   .     S
C86    N92     1.360   .     D
C86    H94     0.950   .     S
C87    C88     1.500   .     D
C88    C90     1.390   .     S
C89    C90     1.390   .     D
C89    H95     0.950   .     S
C90    H96     0.950   .     S
N91    N92     1.360   .     S
N91    Fe100   2.091   .     S
N92    Fe98    2.139   .     S
Fe97   N407    2.091   .     S
Fe97   N431    2.091   .     S
Fe98   N343    2.091   1_455 S
Fe98   N368    2.139   1_455 S
Fe99   N1255   2.091   1_545 S
Fe99   N1279   2.091   1_545 S
Fe100  N367    2.091   1_455 S
Fe100  N344    2.139   1_455 S
C101   C103    1.360   .     S
C101   N107    1.360   .     D
C101   H109    0.950   .     S
C102   C1703   1.360   .     S
C102   N108    1.360   .     D
C102   H110    0.950   .     S
C103   C4902   1.360   1_554 S
C103   C104    1.500   .     D
C104   C106    1.390   .     S
C104   C4965   1.390   1_554 S
C105   C106    1.390   .     D
C105   H111    0.950   .     S
C105   C4964   1.390   1_554 S
C106   H112    0.950   .     S
N107   N4908   1.360   1_554 S
N107   Fe1397  2.091   1_545 S
N108   N1707   1.360   .     S
N108   Fe199   2.139   .     S
C113   C115    1.360   .     S
C113   N119    1.360   .     D
C113   H121    0.950   .     S
C114   C1715   1.360   .     S
C114   N120    1.360   .     D
C114   H122    0.950   .     S
C115   C4914   1.360   1_554 S
C115   C116    1.500   .     D
C116   C118    1.390   .     S
C116   C4953   1.390   1_554 S
C117   C118    1.390   .     D
C117   H123    0.950   .     S
C117   C4952   1.390   1_554 S
C118   H124    0.950   .     S
N119   N4920   1.360   1_554 S
N119   Fe198   2.091   .     S
N120   N1719   1.360   .     S
N120   Fe200   2.139   .     S
C125   C127    1.360   .     S
C125   N131    1.360   .     D
C125   H133    0.950   .     S
C126   C127    1.360   .     S
C126   N132    1.360   .     D
C126   H134    0.950   .     S
C127   C128    1.500   .     D
C128   C130    1.390   .     S
C128   C189    1.390   .     S
C129   C130    1.390   .     D
C129   H135    0.950   .     S
C129   C188    1.390   .     S
C130   H136    0.950   .     S
N131   N132    1.360   .     S
N131   Fe1397  2.091   1_545 S
N132   Fe199   2.139   .     S
C137   C139    1.360   .     S
C137   N143    1.360   .     D
C137   H145    0.950   .     S
C138   C139    1.360   .     S
C138   N144    1.360   .     D
C138   H146    0.950   .     S
C139   C140    1.500   .     D
C140   C142    1.390   .     S
C140   C177    1.390   .     S
C141   C142    1.390   .     D
C141   H147    0.950   .     S
C141   C176    1.390   .     S
C142   H148    0.950   .     S
N143   N144    1.360   .     S
N143   Fe298   2.091   .     S
N144   Fe300   2.139   .     S
C149   C151    1.360   .     S
C149   N155    1.360   .     D
C149   H157    0.950   .     S
C150   C4951   1.360   1_554 S
C150   N156    1.360   .     D
C150   H158    0.950   .     S
C151   C1750   1.360   .     S
C151   C152    1.500   .     D
C152   C154    1.390   .     S
C152   C1717   1.390   .     S
C153   C154    1.390   .     D
C153   H159    0.950   .     S
C153   C1716   1.390   .     S
C154   H160    0.950   .     S
N155   N1756   1.360   .     S
N155   Fe599   2.091   .     S
N156   N4955   1.360   1_554 S
N156   Fe197   2.139   .     S
C161   C163    1.360   .     S
C161   N167    1.360   .     D
C161   H169    0.950   .     S
C162   C4963   1.360   1_554 S
C162   N168    1.360   .     D
C162   H170    0.950   .     S
C163   C1762   1.360   .     S
C163   C164    1.500   .     D
C164   C166    1.390   .     S
C164   C1705   1.390   .     S
C165   C166    1.390   .     D
C165   H171    0.950   .     S
C165   C1704   1.390   .     S
C166   H172    0.950   .     S
N167   N1768   1.360   .     S
N167   Fe300   2.091   .     S
N168   N4967   1.360   1_554 S
N168   Fe298   2.139   .     S
C173   C175    1.360   .     S
C173   N179    1.360   .     D
C173   H181    0.950   .     S
C174   C175    1.360   .     S
C174   N180    1.360   .     D
C174   H182    0.950   .     S
C175   C176    1.500   .     D
C176   C178    1.390   .     S
C177   C178    1.390   .     D
C177   H183    0.950   .     S
C178   H184    0.950   .     S
N179   N180    1.360   .     S
N179   Fe599   2.091   .     S
N180   Fe197   2.139   .     S
C185   C187    1.360   .     S
C185   N191    1.360   .     D
C185   H193    0.950   .     S
C186   C187    1.360   .     S
C186   N192    1.360   .     D
C186   H194    0.950   .     S
C187   C188    1.500   .     D
C188   C190    1.390   .     S
C189   C190    1.390   .     D
C189   H195    0.950   .     S
C190   H196    0.950   .     S
N191   N192    1.360   .     S
N191   Fe200   2.091   .     S
N192   Fe198   2.139   .     S
Fe197  N507    2.091   .     S
Fe197  N531    2.091   .     S
Fe199  N1355   2.091   1_545 S
Fe199  N1379   2.091   1_545 S
C201   C203    1.360   .     S
C201   N207    1.360   .     D
C201   H209    0.950   .     S
C202   C1803   1.360   .     S
C202   N208    1.360   .     D
C202   H210    0.950   .     S
C203   C5002   1.360   1_554 S
C203   C204    1.500   .     D
C204   C206    1.390   .     S
C204   C5065   1.390   1_554 S
C205   C206    1.390   .     D
C205   H211    0.950   .     S
C205   C5064   1.390   1_554 S
C206   H212    0.950   .     S
N207   N5008   1.360   1_554 S
N207   Fe1497  2.091   1_545 S
N208   N1807   1.360   .     S
N208   Fe299   2.139   .     S
C213   C215    1.360   .     S
C213   N219    1.360   .     D
C213   H221    0.950   .     S
C214   C1815   1.360   .     S
C214   N220    1.360   .     D
C214   H222    0.950   .     S
C215   C5014   1.360   1_554 S
C215   C216    1.500   .     D
C216   C218    1.390   .     S
C216   C5053   1.390   1_554 S
C217   C218    1.390   .     D
C217   H223    0.950   .     S
C217   C5052   1.390   1_554 S
C218   H224    0.950   .     S
N219   N5020   1.360   1_554 S
N219   Fe298   2.091   .     S
N220   N1819   1.360   .     S
N220   Fe300   2.139   .     S
C225   C227    1.360   .     S
C225   N231    1.360   .     D
C225   H233    0.950   .     S
C226   C227    1.360   .     S
C226   N232    1.360   .     D
C226   H234    0.950   .     S
C227   C228    1.500   .     D
C228   C230    1.390   .     S
C228   C289    1.390   .     S
C229   C230    1.390   .     D
C229   H235    0.950   .     S
C229   C288    1.390   .     S
C230   H236    0.950   .     S
N231   N232    1.360   .     S
N231   Fe1497  2.091   1_545 S
N232   Fe299   2.139   .     S
C237   C239    1.360   .     S
C237   N243    1.360   .     D
C237   H245    0.950   .     S
C238   C239    1.360   .     S
C238   N244    1.360   .     D
C238   H246    0.950   .     S
C239   C240    1.500   .     D
C240   C242    1.390   .     S
C240   C277    1.390   .     S
C241   C242    1.390   .     D
C241   H247    0.950   .     S
C241   C276    1.390   .     S
C242   H248    0.950   .     S
N243   N244    1.360   .     S
N243   Fe398   2.091   .     S
N244   Fe400   2.139   .     S
C249   C251    1.360   .     S
C249   N255    1.360   .     D
C249   H257    0.950   .     S
C250   C5051   1.360   1_554 S
C250   N256    1.360   .     D
C250   H258    0.950   .     S
C251   C1850   1.360   .     S
C251   C252    1.500   .     D
C252   C254    1.390   .     S
C252   C1817   1.390   .     S
C253   C254    1.390   .     D
C253   H259    0.950   .     S
C253   C1816   1.390   .     S
C254   H260    0.950   .     S
N255   N1856   1.360   .     S
N255   Fe699   2.091   .     S
N256   N5055   1.360   1_554 S
N256   Fe297   2.139   .     S
C261   C263    1.360   .     S
C261   N267    1.360   .     D
C261   H269    0.950   .     S
C262   C5063   1.360   1_554 S
C262   N268    1.360   .     D
C262   H270    0.950   .     S
C263   C1862   1.360   .     S
C263   C264    1.500   .     D
C264   C266    1.390   .     S
C264   C1805   1.390   .     S
C265   C266    1.390   .     D
C265   H271    0.950   .     S
C265   C1804   1.390   .     S
C266   H272    0.950   .     S
N267   N1868   1.360   .     S
N267   Fe400   2.091   .     S
N268   N5067   1.360   1_554 S
N268   Fe398   2.139   .     S
C273   C275    1.360   .     S
C273   N279    1.360   .     D
C273   H281    0.950   .     S
C274   C275    1.360   .     S
C274   N280    1.360   .     D
C274   H282    0.950   .     S
C275   C276    1.500   .     D
C276   C278    1.390   .     S
C277   C278    1.390   .     D
C277   H283    0.950   .     S
C278   H284    0.950   .     S
N279   N280    1.360   .     S
N279   Fe699   2.091   .     S
N280   Fe297   2.139   .     S
C285   C287    1.360   .     S
C285   N291    1.360   .     D
C285   H293    0.950   .     S
C286   C287    1.360   .     S
C286   N292    1.360   .     D
C286   H294    0.950   .     S
C287   C288    1.500   .     D
C288   C290    1.390   .     S
C289   C290    1.390   .     D
C289   H295    0.950   .     S
C290   H296    0.950   .     S
N291   N292    1.360   .     S
N291   Fe300   2.091   .     S
N292   Fe298   2.139   .     S
Fe297  N607    2.091   .     S
Fe297  N631    2.091   .     S
Fe299  N1455   2.091   1_545 S
Fe299  N1479   2.091   1_545 S
C301   C303    1.360   .     S
C301   N307    1.360   .     D
C301   H309    0.950   .     S
C302   C1903   1.360   .     S
C302   N308    1.360   .     D
C302   H310    0.950   .     S
C303   C5102   1.360   1_554 S
C303   C304    1.500   .     D
C304   C306    1.390   .     S
C304   C5165   1.390   1_554 S
C305   C306    1.390   .     D
C305   H311    0.950   .     S
C305   C5164   1.390   1_554 S
C306   H312    0.950   .     S
N307   N5108   1.360   1_554 S
N307   Fe1597  2.091   1_545 S
N308   N1907   1.360   .     S
N308   Fe399   2.139   .     S
C313   C315    1.360   .     S
C313   N319    1.360   .     D
C313   H321    0.950   .     S
C314   C1915   1.360   .     S
C314   N320    1.360   .     D
C314   H322    0.950   .     S
C315   C5114   1.360   1_554 S
C315   C316    1.500   .     D
C316   C318    1.390   .     S
C316   C5153   1.390   1_554 S
C317   C318    1.390   .     D
C317   H323    0.950   .     S
C317   C5152   1.390   1_554 S
C318   H324    0.950   .     S
N319   N5120   1.360   1_554 S
N319   Fe398   2.091   .     S
N320   N1919   1.360   .     S
N320   Fe400   2.139   .     S
C325   C327    1.360   .     S
C325   N331    1.360   .     D
C325   H333    0.950   .     S
C326   C327    1.360   .     S
C326   N332    1.360   .     D
C326   H334    0.950   .     S
C327   C328    1.500   .     D
C328   C330    1.390   .     S
C328   C389    1.390   .     S
C329   C330    1.390   .     D
C329   H335    0.950   .     S
C329   C388    1.390   .     S
C330   H336    0.950   .     S
N331   N332    1.360   .     S
N331   Fe1597  2.091   1_545 S
N332   Fe399   2.139   .     S
C337   C339    1.360   .     S
C337   N343    1.360   .     D
C337   H345    0.950   .     S
C338   C339    1.360   .     S
C338   N344    1.360   .     D
C338   H346    0.950   .     S
C339   C340    1.500   .     D
C340   C342    1.390   .     S
C340   C377    1.390   .     S
C341   C342    1.390   .     D
C341   H347    0.950   .     S
C341   C376    1.390   .     S
C342   H348    0.950   .     S
N343   N344    1.360   .     S
N343   Fe98    2.091   1_655 S
N344   Fe100   2.139   1_655 S
C349   C351    1.360   .     S
C349   N355    1.360   .     D
C349   H357    0.950   .     S
C350   C5151   1.360   1_554 S
C350   N356    1.360   .     D
C350   H358    0.950   .     S
C351   C1950   1.360   .     S
C351   C352    1.500   .     D
C352   C354    1.390   .     S
C352   C1917   1.390   .     S
C353   C354    1.390   .     D
C353   H359    0.950   .     S
C353   C1916   1.390   .     S
C354   H360    0.950   .     S
N355   N1956   1.360   .     S
N355   Fe799   2.091   .     S
N356   N5155   1.360   1_554 S
N356   Fe397   2.139   .     S
C361   C363    1.360   .     S
C361   N367    1.360   .     D
C361   H369    0.950   .     S
C362   C5163   1.360   1_554 S
C362   N368    1.360   .     D
C362   H370    0.950   .     S
C363   C1962   1.360   .     S
C363   C364    1.500   .     D
C364   C366    1.390   .     S
C364   C1905   1.390   .     S
C365   C366    1.390   .     D
C365   H371    0.950   .     S
C365   C1904   1.390   .     S
C366   H372    0.950   .     S
N367   N1968   1.360   .     S
N367   Fe100   2.091   1_655 S
N368   N5167   1.360   1_554 S
N368   Fe98    2.139   1_655 S
C373   C375    1.360   .     S
C373   N379    1.360   .     D
C373   H381    0.950   .     S
C374   C375    1.360   .     S
C374   N380    1.360   .     D
C374   H382    0.950   .     S
C375   C376    1.500   .     D
C376   C378    1.390   .     S
C377   C378    1.390   .     D
C377   H383    0.950   .     S
C378   H384    0.950   .     S
N379   N380    1.360   .     S
N379   Fe799   2.091   .     S
N380   Fe397   2.139   .     S
C385   C387    1.360   .     S
C385   N391    1.360   .     D
C385   H393    0.950   .     S
C386   C387    1.360   .     S
C386   N392    1.360   .     D
C386   H394    0.950   .     S
C387   C388    1.500   .     D
C388   C390    1.390   .     S
C389   C390    1.390   .     D
C389   H395    0.950   .     S
C390   H396    0.950   .     S
N391   N392    1.360   .     S
N391   Fe400   2.091   .     S
N392   Fe398   2.139   .     S
Fe397  N707    2.091   .     S
Fe397  N731    2.091   .     S
Fe399  N1555   2.091   1_545 S
Fe399  N1579   2.091   1_545 S
C401   C403    1.360   .     S
C401   N407    1.360   .     D
C401   H409    0.950   .     S
C402   C2003   1.360   .     S
C402   N408    1.360   .     D
C402   H410    0.950   .     S
C403   C5202   1.360   1_554 S
C403   C404    1.500   .     D
C404   C406    1.390   .     S
C404   C5265   1.390   1_554 S
C405   C406    1.390   .     D
C405   H411    0.950   .     S
C405   C5264   1.390   1_554 S
C406   H412    0.950   .     S
N407   N5208   1.360   1_554 S
N408   N2007   1.360   .     S
N408   Fe499   2.139   .     S
C413   C415    1.360   .     S
C413   N419    1.360   .     D
C413   H421    0.950   .     S
C414   C2015   1.360   .     S
C414   N420    1.360   .     D
C414   H422    0.950   .     S
C415   C5214   1.360   1_554 S
C415   C416    1.500   .     D
C416   C418    1.390   .     S
C416   C5253   1.390   1_554 S
C417   C418    1.390   .     D
C417   H423    0.950   .     S
C417   C5252   1.390   1_554 S
C418   H424    0.950   .     S
N419   N5220   1.360   1_554 S
N419   Fe498   2.091   .     S
N420   N2019   1.360   .     S
N420   Fe500   2.139   .     S
C425   C427    1.360   .     S
C425   N431    1.360   .     D
C425   H433    0.950   .     S
C426   C427    1.360   .     S
C426   N432    1.360   .     D
C426   H434    0.950   .     S
C427   C428    1.500   .     D
C428   C430    1.390   .     S
C428   C489    1.390   .     S
C429   C430    1.390   .     D
C429   H435    0.950   .     S
C429   C488    1.390   .     S
C430   H436    0.950   .     S
N431   N432    1.360   .     S
N432   Fe499   2.139   .     S
C437   C439    1.360   .     S
C437   N443    1.360   .     D
C437   H445    0.950   .     S
C438   C439    1.360   .     S
C438   N444    1.360   .     D
C438   H446    0.950   .     S
C439   C440    1.500   .     D
C440   C442    1.390   .     S
C440   C477    1.390   .     S
C441   C442    1.390   .     D
C441   H447    0.950   .     S
C441   C476    1.390   .     S
C442   H448    0.950   .     S
N443   N444    1.360   .     S
N443   Fe598   2.091   .     S
N444   Fe600   2.139   .     S
C449   C451    1.360   .     S
C449   N455    1.360   .     D
C449   H457    0.950   .     S
C450   C5251   1.360   1_554 S
C450   N456    1.360   .     D
C450   H458    0.950   .     S
C451   C2050   1.360   .     S
C451   C452    1.500   .     D
C452   C454    1.390   .     S
C452   C2017   1.390   .     S
C453   C454    1.390   .     D
C453   H459    0.950   .     S
C453   C2016   1.390   .     S
C454   H460    0.950   .     S
N455   N2056   1.360   .     S
N455   Fe899   2.091   .     S
N456   N5255   1.360   1_554 S
N456   Fe497   2.139   .     S
C461   C463    1.360   .     S
C461   N467    1.360   .     D
C461   H469    0.950   .     S
C462   C5263   1.360   1_554 S
C462   N468    1.360   .     D
C462   H470    0.950   .     S
C463   C2062   1.360   .     S
C463   C464    1.500   .     D
C464   C466    1.390   .     S
C464   C2005   1.390   .     S
C465   C466    1.390   .     D
C465   H471    0.950   .     S
C465   C2004   1.390   .     S
C466   H472    0.950   .     S
N467   N2068   1.360   .     S
N467   Fe600   2.091   .     S
N468   N5267   1.360   1_554 S
N468   Fe598   2.139   .     S
C473   C475    1.360   .     S
C473   N479    1.360   .     D
C473   H481    0.950   .     S
C474   C475    1.360   .     S
C474   N480    1.360   .     D
C474   H482    0.950   .     S
C475   C476    1.500   .     D
C476   C478    1.390   .     S
C477   C478    1.390   .     D
C477   H483    0.950   .     S
C478   H484    0.950   .     S
N479   N480    1.360   .     S
N479   Fe899   2.091   .     S
N480   Fe497   2.139   .     S
C485   C487    1.360   .     S
C485   N491    1.360   .     D
C485   H493    0.950   .     S
C486   C487    1.360   .     S
C486   N492    1.360   .     D
C486   H494    0.950   .     S
C487   C488    1.500   .     D
C488   C490    1.390   .     S
C489   C490    1.390   .     D
C489   H495    0.950   .     S
C490   H496    0.950   .     S
N491   N492    1.360   .     S
N491   Fe500   2.091   .     S
N492   Fe498   2.139   .     S
Fe497  N807    2.091   .     S
Fe497  N831    2.091   .     S
Fe498  N743    2.091   1_455 S
Fe498  N768    2.139   1_455 S
Fe500  N767    2.091   1_455 S
Fe500  N744    2.139   1_455 S
C501   C503    1.360   .     S
C501   N507    1.360   .     D
C501   H509    0.950   .     S
C502   C2103   1.360   .     S
C502   N508    1.360   .     D
C502   H510    0.950   .     S
C503   C5302   1.360   1_554 S
C503   C504    1.500   .     D
C504   C506    1.390   .     S
C504   C5365   1.390   1_554 S
C505   C506    1.390   .     D
C505   H511    0.950   .     S
C505   C5364   1.390   1_554 S
C506   H512    0.950   .     S
N507   N5308   1.360   1_554 S
N508   N2107   1.360   .     S
N508   Fe599   2.139   .     S
C513   C515    1.360   .     S
C513   N519    1.360   .     D
C513   H521    0.950   .     S
C514   C2115   1.360   .     S
C514   N520    1.360   .     D
C514   H522    0.950   .     S
C515   C5314   1.360   1_554 S
C515   C516    1.500   .     D
C516   C518    1.390   .     S
C516   C5353   1.390   1_554 S
C517   C518    1.390   .     D
C517   H523    0.950   .     S
C517   C5352   1.390   1_554 S
C518   H524    0.950   .     S
N519   N5320   1.360   1_554 S
N519   Fe598   2.091   .     S
N520   N2119   1.360   .     S
N520   Fe600   2.139   .     S
C525   C527    1.360   .     S
C525   N531    1.360   .     D
C525   H533    0.950   .     S
C526   C527    1.360   .     S
C526   N532    1.360   .     D
C526   H534    0.950   .     S
C527   C528    1.500   .     D
C528   C530    1.390   .     S
C528   C589    1.390   .     S
C529   C530    1.390   .     D
C529   H535    0.950   .     S
C529   C588    1.390   .     S
C530   H536    0.950   .     S
N531   N532    1.360   .     S
N532   Fe599   2.139   .     S
C537   C539    1.360   .     S
C537   N543    1.360   .     D
C537   H545    0.950   .     S
C538   C539    1.360   .     S
C538   N544    1.360   .     D
C538   H546    0.950   .     S
C539   C540    1.500   .     D
C540   C542    1.390   .     S
C540   C577    1.390   .     S
C541   C542    1.390   .     D
C541   H547    0.950   .     S
C541   C576    1.390   .     S
C542   H548    0.950   .     S
N543   N544    1.360   .     S
N543   Fe698   2.091   .     S
N544   Fe700   2.139   .     S
C549   C551    1.360   .     S
C549   N555    1.360   .     D
C549   H557    0.950   .     S
C550   C5351   1.360   1_554 S
C550   N556    1.360   .     D
C550   H558    0.950   .     S
C551   C2150   1.360   .     S
C551   C552    1.500   .     D
C552   C554    1.390   .     S
C552   C2117   1.390   .     S
C553   C554    1.390   .     D
C553   H559    0.950   .     S
C553   C2116   1.390   .     S
C554   H560    0.950   .     S
N555   N2156   1.360   .     S
N555   Fe999   2.091   .     S
N556   N5355   1.360   1_554 S
N556   Fe597   2.139   .     S
C561   C563    1.360   .     S
C561   N567    1.360   .     D
C561   H569    0.950   .     S
C562   C5363   1.360   1_554 S
C562   N568    1.360   .     D
C562   H570    0.950   .     S
C563   C2162   1.360   .     S
C563   C564    1.500   .     D
C564   C566    1.390   .     S
C564   C2105   1.390   .     S
C565   C566    1.390   .     D
C565   H571    0.950   .     S
C565   C2104   1.390   .     S
C566   H572    0.950   .     S
N567   N2168   1.360   .     S
N567   Fe700   2.091   .     S
N568   N5367   1.360   1_554 S
N568   Fe698   2.139   .     S
C573   C575    1.360   .     S
C573   N579    1.360   .     D
C573   H581    0.950   .     S
C574   C575    1.360   .     S
C574   N580    1.360   .     D
C574   H582    0.950   .     S
C575   C576    1.500   .     D
C576   C578    1.390   .     S
C577   C578    1.390   .     D
C577   H583    0.950   .     S
C578   H584    0.950   .     S
N579   N580    1.360   .     S
N579   Fe999   2.091   .     S
N580   Fe597   2.139   .     S
C585   C587    1.360   .     S
C585   N591    1.360   .     D
C585   H593    0.950   .     S
C586   C587    1.360   .     S
C586   N592    1.360   .     D
C586   H594    0.950   .     S
C587   C588    1.500   .     D
C588   C590    1.390   .     S
C589   C590    1.390   .     D
C589   H595    0.950   .     S
C590   H596    0.950   .     S
N591   N592    1.360   .     S
N591   Fe600   2.091   .     S
N592   Fe598   2.139   .     S
Fe597  N907    2.091   .     S
Fe597  N931    2.091   .     S
C601   C603    1.360   .     S
C601   N607    1.360   .     D
C601   H609    0.950   .     S
C602   C2203   1.360   .     S
C602   N608    1.360   .     D
C602   H610    0.950   .     S
C603   C5402   1.360   1_554 S
C603   C604    1.500   .     D
C604   C606    1.390   .     S
C604   C5465   1.390   1_554 S
C605   C606    1.390   .     D
C605   H611    0.950   .     S
C605   C5464   1.390   1_554 S
C606   H612    0.950   .     S
N607   N5408   1.360   1_554 S
N608   N2207   1.360   .     S
N608   Fe699   2.139   .     S
C613   C615    1.360   .     S
C613   N619    1.360   .     D
C613   H621    0.950   .     S
C614   C2215   1.360   .     S
C614   N620    1.360   .     D
C614   H622    0.950   .     S
C615   C5414   1.360   1_554 S
C615   C616    1.500   .     D
C616   C618    1.390   .     S
C616   C5453   1.390   1_554 S
C617   C618    1.390   .     D
C617   H623    0.950   .     S
C617   C5452   1.390   1_554 S
C618   H624    0.950   .     S
N619   N5420   1.360   1_554 S
N619   Fe698   2.091   .     S
N620   N2219   1.360   .     S
N620   Fe700   2.139   .     S
C625   C627    1.360   .     S
C625   N631    1.360   .     D
C625   H633    0.950   .     S
C626   C627    1.360   .     S
C626   N632    1.360   .     D
C626   H634    0.950   .     S
C627   C628    1.500   .     D
C628   C630    1.390   .     S
C628   C689    1.390   .     S
C629   C630    1.390   .     D
C629   H635    0.950   .     S
C629   C688    1.390   .     S
C630   H636    0.950   .     S
N631   N632    1.360   .     S
N632   Fe699   2.139   .     S
C637   C639    1.360   .     S
C637   N643    1.360   .     D
C637   H645    0.950   .     S
C638   C639    1.360   .     S
C638   N644    1.360   .     D
C638   H646    0.950   .     S
C639   C640    1.500   .     D
C640   C642    1.390   .     S
C640   C677    1.390   .     S
C641   C642    1.390   .     D
C641   H647    0.950   .     S
C641   C676    1.390   .     S
C642   H648    0.950   .     S
N643   N644    1.360   .     S
N643   Fe798   2.091   .     S
N644   Fe800   2.139   .     S
C649   C651    1.360   .     S
C649   N655    1.360   .     D
C649   H657    0.950   .     S
C650   C5451   1.360   1_554 S
C650   N656    1.360   .     D
C650   H658    0.950   .     S
C651   C2250   1.360   .     S
C651   C652    1.500   .     D
C652   C654    1.390   .     S
C652   C2217   1.390   .     S
C653   C654    1.390   .     D
C653   H659    0.950   .     S
C653   C2216   1.390   .     S
C654   H660    0.950   .     S
N655   N2256   1.360   .     S
N655   Fe1099  2.091   .     S
N656   N5455   1.360   1_554 S
N656   Fe697   2.139   .     S
C661   C663    1.360   .     S
C661   N667    1.360   .     D
C661   H669    0.950   .     S
C662   C5463   1.360   1_554 S
C662   N668    1.360   .     D
C662   H670    0.950   .     S
C663   C2262   1.360   .     S
C663   C664    1.500   .     D
C664   C666    1.390   .     S
C664   C2205   1.390   .     S
C665   C666    1.390   .     D
C665   H671    0.950   .     S
C665   C2204   1.390   .     S
C666   H672    0.950   .     S
N667   N2268   1.360   .     S
N667   Fe800   2.091   .     S
N668   N5467   1.360   1_554 S
N668   Fe798   2.139   .     S
C673   C675    1.360   .     S
C673   N679    1.360   .     D
C673   H681    0.950   .     S
C674   C675    1.360   .     S
C674   N680    1.360   .     D
C674   H682    0.950   .     S
C675   C676    1.500   .     D
C676   C678    1.390   .     S
C677   C678    1.390   .     D
C677   H683    0.950   .     S
C678   H684    0.950   .     S
N679   N680    1.360   .     S
N679   Fe1099  2.091   .     S
N680   Fe697   2.139   .     S
C685   C687    1.360   .     S
C685   N691    1.360   .     D
C685   H693    0.950   .     S
C686   C687    1.360   .     S
C686   N692    1.360   .     D
C686   H694    0.950   .     S
C687   C688    1.500   .     D
C688   C690    1.390   .     S
C689   C690    1.390   .     D
C689   H695    0.950   .     S
C690   H696    0.950   .     S
N691   N692    1.360   .     S
N691   Fe700   2.091   .     S
N692   Fe698   2.139   .     S
Fe697  N1007   2.091   .     S
Fe697  N1031   2.091   .     S
C701   C703    1.360   .     S
C701   N707    1.360   .     D
C701   H709    0.950   .     S
C702   C2303   1.360   .     S
C702   N708    1.360   .     D
C702   H710    0.950   .     S
C703   C5502   1.360   1_554 S
C703   C704    1.500   .     D
C704   C706    1.390   .     S
C704   C5565   1.390   1_554 S
C705   C706    1.390   .     D
C705   H711    0.950   .     S
C705   C5564   1.390   1_554 S
C706   H712    0.950   .     S
N707   N5508   1.360   1_554 S
N708   N2307   1.360   .     S
N708   Fe799   2.139   .     S
C713   C715    1.360   .     S
C713   N719    1.360   .     D
C713   H721    0.950   .     S
C714   C2315   1.360   .     S
C714   N720    1.360   .     D
C714   H722    0.950   .     S
C715   C5514   1.360   1_554 S
C715   C716    1.500   .     D
C716   C718    1.390   .     S
C716   C5553   1.390   1_554 S
C717   C718    1.390   .     D
C717   H723    0.950   .     S
C717   C5552   1.390   1_554 S
C718   H724    0.950   .     S
N719   N5520   1.360   1_554 S
N719   Fe798   2.091   .     S
N720   N2319   1.360   .     S
N720   Fe800   2.139   .     S
C725   C727    1.360   .     S
C725   N731    1.360   .     D
C725   H733    0.950   .     S
C726   C727    1.360   .     S
C726   N732    1.360   .     D
C726   H734    0.950   .     S
C727   C728    1.500   .     D
C728   C730    1.390   .     S
C728   C789    1.390   .     S
C729   C730    1.390   .     D
C729   H735    0.950   .     S
C729   C788    1.390   .     S
C730   H736    0.950   .     S
N731   N732    1.360   .     S
N732   Fe799   2.139   .     S
C737   C739    1.360   .     S
C737   N743    1.360   .     D
C737   H745    0.950   .     S
C738   C739    1.360   .     S
C738   N744    1.360   .     D
C738   H746    0.950   .     S
C739   C740    1.500   .     D
C740   C742    1.390   .     S
C740   C777    1.390   .     S
C741   C742    1.390   .     D
C741   H747    0.950   .     S
C741   C776    1.390   .     S
C742   H748    0.950   .     S
N743   N744    1.360   .     S
N743   Fe498   2.091   1_655 S
N744   Fe500   2.139   1_655 S
C749   C751    1.360   .     S
C749   N755    1.360   .     D
C749   H757    0.950   .     S
C750   C5551   1.360   1_554 S
C750   N756    1.360   .     D
C750   H758    0.950   .     S
C751   C2350   1.360   .     S
C751   C752    1.500   .     D
C752   C754    1.390   .     S
C752   C2317   1.390   .     S
C753   C754    1.390   .     D
C753   H759    0.950   .     S
C753   C2316   1.390   .     S
C754   H760    0.950   .     S
N755   N2356   1.360   .     S
N755   Fe1199  2.091   .     S
N756   N5555   1.360   1_554 S
N756   Fe797   2.139   .     S
C761   C763    1.360   .     S
C761   N767    1.360   .     D
C761   H769    0.950   .     S
C762   C5563   1.360   1_554 S
C762   N768    1.360   .     D
C762   H770    0.950   .     S
C763   C2362   1.360   .     S
C763   C764    1.500   .     D
C764   C766    1.390   .     S
C764   C2305   1.390   .     S
C765   C766    1.390   .     D
C765   H771    0.950   .     S
C765   C2304   1.390   .     S
C766   H772    0.950   .     S
N767   N2368   1.360   .     S
N767   Fe500   2.091   1_655 S
N768   N5567   1.360   1_554 S
N768   Fe498   2.139   1_655 S
C773   C775    1.360   .     S
C773   N779    1.360   .     D
C773   H781    0.950   .     S
C774   C775    1.360   .     S
C774   N780    1.360   .     D
C774   H782    0.950   .     S
C775   C776    1.500   .     D
C776   C778    1.390   .     S
C777   C778    1.390   .     D
C777   H783    0.950   .     S
C778   H784    0.950   .     S
N779   N780    1.360   .     S
N779   Fe1199  2.091   .     S
N780   Fe797   2.139   .     S
C785   C787    1.360   .     S
C785   N791    1.360   .     D
C785   H793    0.950   .     S
C786   C787    1.360   .     S
C786   N792    1.360   .     D
C786   H794    0.950   .     S
C787   C788    1.500   .     D
C788   C790    1.390   .     S
C789   C790    1.390   .     D
C789   H795    0.950   .     S
C790   H796    0.950   .     S
N791   N792    1.360   .     S
N791   Fe800   2.091   .     S
N792   Fe798   2.139   .     S
Fe797  N1107   2.091   .     S
Fe797  N1131   2.091   .     S
C801   C803    1.360   .     S
C801   N807    1.360   .     D
C801   H809    0.950   .     S
C802   C2403   1.360   .     S
C802   N808    1.360   .     D
C802   H810    0.950   .     S
C803   C5602   1.360   1_554 S
C803   C804    1.500   .     D
C804   C806    1.390   .     S
C804   C5665   1.390   1_554 S
C805   C806    1.390   .     D
C805   H811    0.950   .     S
C805   C5664   1.390   1_554 S
C806   H812    0.950   .     S
N807   N5608   1.360   1_554 S
N808   N2407   1.360   .     S
N808   Fe899   2.139   .     S
C813   C815    1.360   .     S
C813   N819    1.360   .     D
C813   H821    0.950   .     S
C814   C2415   1.360   .     S
C814   N820    1.360   .     D
C814   H822    0.950   .     S
C815   C5614   1.360   1_554 S
C815   C816    1.500   .     D
C816   C818    1.390   .     S
C816   C5653   1.390   1_554 S
C817   C818    1.390   .     D
C817   H823    0.950   .     S
C817   C5652   1.390   1_554 S
C818   H824    0.950   .     S
N819   N5620   1.360   1_554 S
N819   Fe898   2.091   .     S
N820   N2419   1.360   .     S
N820   Fe900   2.139   .     S
C825   C827    1.360   .     S
C825   N831    1.360   .     D
C825   H833    0.950   .     S
C826   C827    1.360   .     S
C826   N832    1.360   .     D
C826   H834    0.950   .     S
C827   C828    1.500   .     D
C828   C830    1.390   .     S
C828   C889    1.390   .     S
C829   C830    1.390   .     D
C829   H835    0.950   .     S
C829   C888    1.390   .     S
C830   H836    0.950   .     S
N831   N832    1.360   .     S
N832   Fe899   2.139   .     S
C837   C839    1.360   .     S
C837   N843    1.360   .     D
C837   H845    0.950   .     S
C838   C839    1.360   .     S
C838   N844    1.360   .     D
C838   H846    0.950   .     S
C839   C840    1.500   .     D
C840   C842    1.390   .     S
C840   C877    1.390   .     S
C841   C842    1.390   .     D
C841   H847    0.950   .     S
C841   C876    1.390   .     S
C842   H848    0.950   .     S
N843   N844    1.360   .     S
N843   Fe998   2.091   .     S
N844   Fe1000  2.139   .     S
C849   C851    1.360   .     S
C849   N855    1.360   .     D
C849   H857    0.950   .     S
C850   C5651   1.360   1_554 S
C850   N856    1.360   .     D
C850   H858    0.950   .     S
C851   C2450   1.360   .     S
C851   C852    1.500   .     D
C852   C854    1.390   .     S
C852   C2417   1.390   .     S
C853   C854    1.390   .     D
C853   H859    0.950   .     S
C853   C2416   1.390   .     S
C854   H860    0.950   .     S
N855   N2456   1.360   .     S
N855   Fe1299  2.091   .     S
N856   N5655   1.360   1_554 S
N856   Fe897   2.139   .     S
C861   C863    1.360   .     S
C861   N867    1.360   .     D
C861   H869    0.950   .     S
C862   C5663   1.360   1_554 S
C862   N868    1.360   .     D
C862   H870    0.950   .     S
C863   C2462   1.360   .     S
C863   C864    1.500   .     D
C864   C866    1.390   .     S
C864   C2405   1.390   .     S
C865   C866    1.390   .     D
C865   H871    0.950   .     S
C865   C2404   1.390   .     S
C866   H872    0.950   .     S
N867   N2468   1.360   .     S
N867   Fe1000  2.091   .     S
N868   N5667   1.360   1_554 S
N868   Fe998   2.139   .     S
C873   C875    1.360   .     S
C873   N879    1.360   .     D
C873   H881    0.950   .     S
C874   C875    1.360   .     S
C874   N880    1.360   .     D
C874   H882    0.950   .     S
C875   C876    1.500   .     D
C876   C878    1.390   .     S
C877   C878    1.390   .     D
C877   H883    0.950   .     S
C878   H884    0.950   .     S
N879   N880    1.360   .     S
N879   Fe1299  2.091   .     S
N880   Fe897   2.139   .     S
C885   C887    1.360   .     S
C885   N891    1.360   .     D
C885   H893    0.950   .     S
C886   C887    1.360   .     S
C886   N892    1.360   .     D
C886   H894    0.950   .     S
C887   C888    1.500   .     D
C888   C890    1.390   .     S
C889   C890    1.390   .     D
C889   H895    0.950   .     S
C890   H896    0.950   .     S
N891   N892    1.360   .     S
N891   Fe900   2.091   .     S
N892   Fe898   2.139   .     S
Fe897  N1207   2.091   .     S
Fe897  N1231   2.091   .     S
Fe898  N1143   2.091   1_455 S
Fe898  N1168   2.139   1_455 S
Fe900  N1167   2.091   1_455 S
Fe900  N1144   2.139   1_455 S
C901   C903    1.360   .     S
C901   N907    1.360   .     D
C901   H909    0.950   .     S
C902   C2503   1.360   .     S
C902   N908    1.360   .     D
C902   H910    0.950   .     S
C903   C5702   1.360   1_554 S
C903   C904    1.500   .     D
C904   C906    1.390   .     S
C904   C5765   1.390   1_554 S
C905   C906    1.390   .     D
C905   H911    0.950   .     S
C905   C5764   1.390   1_554 S
C906   H912    0.950   .     S
N907   N5708   1.360   1_554 S
N908   N2507   1.360   .     S
N908   Fe999   2.139   .     S
C913   C915    1.360   .     S
C913   N919    1.360   .     D
C913   H921    0.950   .     S
C914   C2515   1.360   .     S
C914   N920    1.360   .     D
C914   H922    0.950   .     S
C915   C5714   1.360   1_554 S
C915   C916    1.500   .     D
C916   C918    1.390   .     S
C916   C5753   1.390   1_554 S
C917   C918    1.390   .     D
C917   H923    0.950   .     S
C917   C5752   1.390   1_554 S
C918   H924    0.950   .     S
N919   N5720   1.360   1_554 S
N919   Fe998   2.091   .     S
N920   N2519   1.360   .     S
N920   Fe1000  2.139   .     S
C925   C927    1.360   .     S
C925   N931    1.360   .     D
C925   H933    0.950   .     S
C926   C927    1.360   .     S
C926   N932    1.360   .     D
C926   H934    0.950   .     S
C927   C928    1.500   .     D
C928   C930    1.390   .     S
C928   C989    1.390   .     S
C929   C930    1.390   .     D
C929   H935    0.950   .     S
C929   C988    1.390   .     S
C930   H936    0.950   .     S
N931   N932    1.360   .     S
N932   Fe999   2.139   .     S
C937   C939    1.360   .     S
C937   N943    1.360   .     D
C937   H945    0.950   .     S
C938   C939    1.360   .     S
C938   N944    1.360   .     D
C938   H946    0.950   .     S
C939   C940    1.500   .     D
C940   C942    1.390   .     S
C940   C977    1.390   .     S
C941   C942    1.390   .     D
C941   H947    0.950   .     S
C941   C976    1.390   .     S
C942   H948    0.950   .     S
N943   N944    1.360   .     S
N943   Fe1098  2.091   .     S
N944   Fe1100  2.139   .     S
C949   C951    1.360   .     S
C949   N955    1.360   .     D
C949   H957    0.950   .     S
C950   C5751   1.360   1_554 S
C950   N956    1.360   .     D
C950   H958    0.950   .     S
C951   C2550   1.360   .     S
C951   C952    1.500   .     D
C952   C954    1.390   .     S
C952   C2517   1.390   .     S
C953   C954    1.390   .     D
C953   H959    0.950   .     S
C953   C2516   1.390   .     S
C954   H960    0.950   .     S
N955   N2556   1.360   .     S
N955   Fe1399  2.091   .     S
N956   N5755   1.360   1_554 S
N956   Fe997   2.139   .     S
C961   C963    1.360   .     S
C961   N967    1.360   .     D
C961   H969    0.950   .     S
C962   C5763   1.360   1_554 S
C962   N968    1.360   .     D
C962   H970    0.950   .     S
C963   C2562   1.360   .     S
C963   C964    1.500   .     D
C964   C966    1.390   .     S
C964   C2505   1.390   .     S
C965   C966    1.390   .     D
C965   H971    0.950   .     S
C965   C2504   1.390   .     S
C966   H972    0.950   .     S
N967   N2568   1.360   .     S
N967   Fe1100  2.091   .     S
N968   N5767   1.360   1_554 S
N968   Fe1098  2.139   .     S
C973   C975    1.360   .     S
C973   N979    1.360   .     D
C973   H981    0.950   .     S
C974   C975    1.360   .     S
C974   N980    1.360   .     D
C974   H982    0.950   .     S
C975   C976    1.500   .     D
C976   C978    1.390   .     S
C977   C978    1.390   .     D
C977   H983    0.950   .     S
C978   H984    0.950   .     S
N979   N980    1.360   .     S
N979   Fe1399  2.091   .     S
N980   Fe997   2.139   .     S
C985   C987    1.360   .     S
C985   N991    1.360   .     D
C985   H993    0.950   .     S
C986   C987    1.360   .     S
C986   N992    1.360   .     D
C986   H994    0.950   .     S
C987   C988    1.500   .     D
C988   C990    1.390   .     S
C989   C990    1.390   .     D
C989   H995    0.950   .     S
C990   H996    0.950   .     S
N991   N992    1.360   .     S
N991   Fe1000  2.091   .     S
N992   Fe998   2.139   .     S
Fe997  N1307   2.091   .     S
Fe997  N1331   2.091   .     S
C1001  C1003   1.360   .     S
C1001  N1007   1.360   .     D
C1001  H1009   0.950   .     S
C1002  C2603   1.360   .     S
C1002  N1008   1.360   .     D
C1002  H1010   0.950   .     S
C1003  C5802   1.360   1_554 S
C1003  C1004   1.500   .     D
C1004  C1006   1.390   .     S
C1004  C5865   1.390   1_554 S
C1005  C1006   1.390   .     D
C1005  H1011   0.950   .     S
C1005  C5864   1.390   1_554 S
C1006  H1012   0.950   .     S
N1007  N5808   1.360   1_554 S
N1008  N2607   1.360   .     S
N1008  Fe1099  2.139   .     S
C1013  C1015   1.360   .     S
C1013  N1019   1.360   .     D
C1013  H1021   0.950   .     S
C1014  C2615   1.360   .     S
C1014  N1020   1.360   .     D
C1014  H1022   0.950   .     S
C1015  C5814   1.360   1_554 S
C1015  C1016   1.500   .     D
C1016  C1018   1.390   .     S
C1016  C5853   1.390   1_554 S
C1017  C1018   1.390   .     D
C1017  H1023   0.950   .     S
C1017  C5852   1.390   1_554 S
C1018  H1024   0.950   .     S
N1019  N5820   1.360   1_554 S
N1019  Fe1098  2.091   .     S
N1020  N2619   1.360   .     S
N1020  Fe1100  2.139   .     S
C1025  C1027   1.360   .     S
C1025  N1031   1.360   .     D
C1025  H1033   0.950   .     S
C1026  C1027   1.360   .     S
C1026  N1032   1.360   .     D
C1026  H1034   0.950   .     S
C1027  C1028   1.500   .     D
C1028  C1030   1.390   .     S
C1028  C1089   1.390   .     S
C1029  C1030   1.390   .     D
C1029  H1035   0.950   .     S
C1029  C1088   1.390   .     S
C1030  H1036   0.950   .     S
N1031  N1032   1.360   .     S
N1032  Fe1099  2.139   .     S
C1037  C1039   1.360   .     S
C1037  N1043   1.360   .     D
C1037  H1045   0.950   .     S
C1038  C1039   1.360   .     S
C1038  N1044   1.360   .     D
C1038  H1046   0.950   .     S
C1039  C1040   1.500   .     D
C1040  C1042   1.390   .     S
C1040  C1077   1.390   .     S
C1041  C1042   1.390   .     D
C1041  H1047   0.950   .     S
C1041  C1076   1.390   .     S
C1042  H1048   0.950   .     S
N1043  N1044   1.360   .     S
N1043  Fe1198  2.091   .     S
N1044  Fe1200  2.139   .     S
C1049  C1051   1.360   .     S
C1049  N1055   1.360   .     D
C1049  H1057   0.950   .     S
C1050  C5851   1.360   1_554 S
C1050  N1056   1.360   .     D
C1050  H1058   0.950   .     S
C1051  C2650   1.360   .     S
C1051  C1052   1.500   .     D
C1052  C1054   1.390   .     S
C1052  C2617   1.390   .     S
C1053  C1054   1.390   .     D
C1053  H1059   0.950   .     S
C1053  C2616   1.390   .     S
C1054  H1060   0.950   .     S
N1055  N2656   1.360   .     S
N1055  Fe1499  2.091   .     S
N1056  N5855   1.360   1_554 S
N1056  Fe1097  2.139   .     S
C1061  C1063   1.360   .     S
C1061  N1067   1.360   .     D
C1061  H1069   0.950   .     S
C1062  C5863   1.360   1_554 S
C1062  N1068   1.360   .     D
C1062  H1070   0.950   .     S
C1063  C2662   1.360   .     S
C1063  C1064   1.500   .     D
C1064  C1066   1.390   .     S
C1064  C2605   1.390   .     S
C1065  C1066   1.390   .     D
C1065  H1071   0.950   .     S
C1065  C2604   1.390   .     S
C1066  H1072   0.950   .     S
N1067  N2668   1.360   .     S
N1067  Fe1200  2.091   .     S
N1068  N5867   1.360   1_554 S
N1068  Fe1198  2.139   .     S
C1073  C1075   1.360   .     S
C1073  N1079   1.360   .     D
C1073  H1081   0.950   .     S
C1074  C1075   1.360   .     S
C1074  N1080   1.360   .     D
C1074  H1082   0.950   .     S
C1075  C1076   1.500   .     D
C1076  C1078   1.390   .     S
C1077  C1078   1.390   .     D
C1077  H1083   0.950   .     S
C1078  H1084   0.950   .     S
N1079  N1080   1.360   .     S
N1079  Fe1499  2.091   .     S
N1080  Fe1097  2.139   .     S
C1085  C1087   1.360   .     S
C1085  N1091   1.360   .     D
C1085  H1093   0.950   .     S
C1086  C1087   1.360   .     S
C1086  N1092   1.360   .     D
C1086  H1094   0.950   .     S
C1087  C1088   1.500   .     D
C1088  C1090   1.390   .     S
C1089  C1090   1.390   .     D
C1089  H1095   0.950   .     S
C1090  H1096   0.950   .     S
N1091  N1092   1.360   .     S
N1091  Fe1100  2.091   .     S
N1092  Fe1098  2.139   .     S
Fe1097 N1407   2.091   .     S
Fe1097 N1431   2.091   .     S
C1101  C1103   1.360   .     S
C1101  N1107   1.360   .     D
C1101  H1109   0.950   .     S
C1102  C2703   1.360   .     S
C1102  N1108   1.360   .     D
C1102  H1110   0.950   .     S
C1103  C5902   1.360   1_554 S
C1103  C1104   1.500   .     D
C1104  C1106   1.390   .     S
C1104  C5965   1.390   1_554 S
C1105  C1106   1.390   .     D
C1105  H1111   0.950   .     S
C1105  C5964   1.390   1_554 S
C1106  H1112   0.950   .     S
N1107  N5908   1.360   1_554 S
N1108  N2707   1.360   .     S
N1108  Fe1199  2.139   .     S
C1113  C1115   1.360   .     S
C1113  N1119   1.360   .     D
C1113  H1121   0.950   .     S
C1114  C2715   1.360   .     S
C1114  N1120   1.360   .     D
C1114  H1122   0.950   .     S
C1115  C5914   1.360   1_554 S
C1115  C1116   1.500   .     D
C1116  C1118   1.390   .     S
C1116  C5953   1.390   1_554 S
C1117  C1118   1.390   .     D
C1117  H1123   0.950   .     S
C1117  C5952   1.390   1_554 S
C1118  H1124   0.950   .     S
N1119  N5920   1.360   1_554 S
N1119  Fe1198  2.091   .     S
N1120  N2719   1.360   .     S
N1120  Fe1200  2.139   .     S
C1125  C1127   1.360   .     S
C1125  N1131   1.360   .     D
C1125  H1133   0.950   .     S
C1126  C1127   1.360   .     S
C1126  N1132   1.360   .     D
C1126  H1134   0.950   .     S
C1127  C1128   1.500   .     D
C1128  C1130   1.390   .     S
C1128  C1189   1.390   .     S
C1129  C1130   1.390   .     D
C1129  H1135   0.950   .     S
C1129  C1188   1.390   .     S
C1130  H1136   0.950   .     S
N1131  N1132   1.360   .     S
N1132  Fe1199  2.139   .     S
C1137  C1139   1.360   .     S
C1137  N1143   1.360   .     D
C1137  H1145   0.950   .     S
C1138  C1139   1.360   .     S
C1138  N1144   1.360   .     D
C1138  H1146   0.950   .     S
C1139  C1140   1.500   .     D
C1140  C1142   1.390   .     S
C1140  C1177   1.390   .     S
C1141  C1142   1.390   .     D
C1141  H1147   0.950   .     S
C1141  C1176   1.390   .     S
C1142  H1148   0.950   .     S
N1143  N1144   1.360   .     S
N1143  Fe898   2.091   1_655 S
N1144  Fe900   2.139   1_655 S
C1149  C1151   1.360   .     S
C1149  N1155   1.360   .     D
C1149  H1157   0.950   .     S
C1150  C5951   1.360   1_554 S
C1150  N1156   1.360   .     D
C1150  H1158   0.950   .     S
C1151  C2750   1.360   .     S
C1151  C1152   1.500   .     D
C1152  C1154   1.390   .     S
C1152  C2717   1.390   .     S
C1153  C1154   1.390   .     D
C1153  H1159   0.950   .     S
C1153  C2716   1.390   .     S
C1154  H1160   0.950   .     S
N1155  N2756   1.360   .     S
N1155  Fe1599  2.091   .     S
N1156  N5955   1.360   1_554 S
N1156  Fe1197  2.139   .     S
C1161  C1163   1.360   .     S
C1161  N1167   1.360   .     D
C1161  H1169   0.950   .     S
C1162  C5963   1.360   1_554 S
C1162  N1168   1.360   .     D
C1162  H1170   0.950   .     S
C1163  C2762   1.360   .     S
C1163  C1164   1.500   .     D
C1164  C1166   1.390   .     S
C1164  C2705   1.390   .     S
C1165  C1166   1.390   .     D
C1165  H1171   0.950   .     S
C1165  C2704   1.390   .     S
C1166  H1172   0.950   .     S
N1167  N2768   1.360   .     S
N1167  Fe900   2.091   1_655 S
N1168  N5967   1.360   1_554 S
N1168  Fe898   2.139   1_655 S
C1173  C1175   1.360   .     S
C1173  N1179   1.360   .     D
C1173  H1181   0.950   .     S
C1174  C1175   1.360   .     S
C1174  N1180   1.360   .     D
C1174  H1182   0.950   .     S
C1175  C1176   1.500   .     D
C1176  C1178   1.390   .     S
C1177  C1178   1.390   .     D
C1177  H1183   0.950   .     S
C1178  H1184   0.950   .     S
N1179  N1180   1.360   .     S
N1179  Fe1599  2.091   .     S
N1180  Fe1197  2.139   .     S
C1185  C1187   1.360   .     S
C1185  N1191   1.360   .     D
C1185  H1193   0.950   .     S
C1186  C1187   1.360   .     S
C1186  N1192   1.360   .     D
C1186  H1194   0.950   .     S
C1187  C1188   1.500   .     D
C1188  C1190   1.390   .     S
C1189  C1190   1.390   .     D
C1189  H1195   0.950   .     S
C1190  H1196   0.950   .     S
N1191  N1192   1.360   .     S
N1191  Fe1200  2.091   .     S
N1192  Fe1198  2.139   .     S
Fe1197 N1507   2.091   .     S
Fe1197 N1531   2.091   .     S
C1201  C1203   1.360   .     S
C1201  N1207   1.360   .     D
C1201  H1209   0.950   .     S
C1202  C2803   1.360   .     S
C1202  N1208   1.360   .     D
C1202  H1210   0.950   .     S
C1203  C6002   1.360   1_554 S
C1203  C1204   1.500   .     D
C1204  C1206   1.390   .     S
C1204  C6065   1.390   1_554 S
C1205  C1206   1.390   .     D
C1205  H1211   0.950   .     S
C1205  C6064   1.390   1_554 S
C1206  H1212   0.950   .     S
N1207  N6008   1.360   1_554 S
N1208  N2807   1.360   .     S
N1208  Fe1299  2.139   .     S
C1213  C1215   1.360   .     S
C1213  N1219   1.360   .     D
C1213  H1221   0.950   .     S
C1214  C2815   1.360   .     S
C1214  N1220   1.360   .     D
C1214  H1222   0.950   .     S
C1215  C6014   1.360   1_554 S
C1215  C1216   1.500   .     D
C1216  C1218   1.390   .     S
C1216  C6053   1.390   1_554 S
C1217  C1218   1.390   .     D
C1217  H1223   0.950   .     S
C1217  C6052   1.390   1_554 S
C1218  H1224   0.950   .     S
N1219  N6020   1.360   1_554 S
N1219  Fe1298  2.091   .     S
N1220  N2819   1.360   .     S
N1220  Fe1300  2.139   .     S
C1225  C1227   1.360   .     S
C1225  N1231   1.360   .     D
C1225  H1233   0.950   .     S
C1226  C1227   1.360   .     S
C1226  N1232   1.360   .     D
C1226  H1234   0.950   .     S
C1227  C1228   1.500   .     D
C1228  C1230   1.390   .     S
C1228  C1289   1.390   .     S
C1229  C1230   1.390   .     D
C1229  H1235   0.950   .     S
C1229  C1288   1.390   .     S
C1230  H1236   0.950   .     S
N1231  N1232   1.360   .     S
N1232  Fe1299  2.139   .     S
C1237  C1239   1.360   .     S
C1237  N1243   1.360   .     D
C1237  H1245   0.950   .     S
C1238  C1239   1.360   .     S
C1238  N1244   1.360   .     D
C1238  H1246   0.950   .     S
C1239  C1240   1.500   .     D
C1240  C1242   1.390   .     S
C1240  C1277   1.390   .     S
C1241  C1242   1.390   .     D
C1241  H1247   0.950   .     S
C1241  C1276   1.390   .     S
C1242  H1248   0.950   .     S
N1243  N1244   1.360   .     S
N1243  Fe1398  2.091   .     S
N1244  Fe1400  2.139   .     S
C1249  C1251   1.360   .     S
C1249  N1255   1.360   .     D
C1249  H1257   0.950   .     S
C1250  C6051   1.360   1_554 S
C1250  N1256   1.360   .     D
C1250  H1258   0.950   .     S
C1251  C2850   1.360   .     S
C1251  C1252   1.500   .     D
C1252  C1254   1.390   .     S
C1252  C2817   1.390   .     S
C1253  C1254   1.390   .     D
C1253  H1259   0.950   .     S
C1253  C2816   1.390   .     S
C1254  H1260   0.950   .     S
N1255  N2856   1.360   .     S
N1255  Fe99    2.091   1_565 S
N1256  N6055   1.360   1_554 S
N1256  Fe1297  2.139   .     S
C1261  C1263   1.360   .     S
C1261  N1267   1.360   .     D
C1261  H1269   0.950   .     S
C1262  C6063   1.360   1_554 S
C1262  N1268   1.360   .     D
C1262  H1270   0.950   .     S
C1263  C2862   1.360   .     S
C1263  C1264   1.500   .     D
C1264  C1266   1.390   .     S
C1264  C2805   1.390   .     S
C1265  C1266   1.390   .     D
C1265  H1271   0.950   .     S
C1265  C2804   1.390   .     S
C1266  H1272   0.950   .     S
N1267  N2868   1.360   .     S
N1267  Fe1400  2.091   .     S
N1268  N6067   1.360   1_554 S
N1268  Fe1398  2.139   .     S
C1273  C1275   1.360   .     S
C1273  N1279   1.360   .     D
C1273  H1281   0.950   .     S
C1274  C1275   1.360   .     S
C1274  N1280   1.360   .     D
C1274  H1282   0.950   .     S
C1275  C1276   1.500   .     D
C1276  C1278   1.390   .     S
C1277  C1278   1.390   .     D
C1277  H1283   0.950   .     S
C1278  H1284   0.950   .     S
N1279  N1280   1.360   .     S
N1279  Fe99    2.091   1_565 S
N1280  Fe1297  2.139   .     S
C1285  C1287   1.360   .     S
C1285  N1291   1.360   .     D
C1285  H1293   0.950   .     S
C1286  C1287   1.360   .     S
C1286  N1292   1.360   .     D
C1286  H1294   0.950   .     S
C1287  C1288   1.500   .     D
C1288  C1290   1.390   .     S
C1289  C1290   1.390   .     D
C1289  H1295   0.950   .     S
C1290  H1296   0.950   .     S
N1291  N1292   1.360   .     S
N1291  Fe1300  2.091   .     S
N1292  Fe1298  2.139   .     S
Fe1297 N7      2.091   1_565 S
Fe1297 N31     2.091   1_565 S
Fe1298 N1543   2.091   1_455 S
Fe1298 N1568   2.139   1_455 S
Fe1300 N1567   2.091   1_455 S
Fe1300 N1544   2.139   1_455 S
C1301  C1303   1.360   .     S
C1301  N1307   1.360   .     D
C1301  H1309   0.950   .     S
C1302  C2903   1.360   .     S
C1302  N1308   1.360   .     D
C1302  H1310   0.950   .     S
C1303  C6102   1.360   1_554 S
C1303  C1304   1.500   .     D
C1304  C1306   1.390   .     S
C1304  C6165   1.390   1_554 S
C1305  C1306   1.390   .     D
C1305  H1311   0.950   .     S
C1305  C6164   1.390   1_554 S
C1306  H1312   0.950   .     S
N1307  N6108   1.360   1_554 S
N1308  N2907   1.360   .     S
N1308  Fe1399  2.139   .     S
C1313  C1315   1.360   .     S
C1313  N1319   1.360   .     D
C1313  H1321   0.950   .     S
C1314  C2915   1.360   .     S
C1314  N1320   1.360   .     D
C1314  H1322   0.950   .     S
C1315  C6114   1.360   1_554 S
C1315  C1316   1.500   .     D
C1316  C1318   1.390   .     S
C1316  C6153   1.390   1_554 S
C1317  C1318   1.390   .     D
C1317  H1323   0.950   .     S
C1317  C6152   1.390   1_554 S
C1318  H1324   0.950   .     S
N1319  N6120   1.360   1_554 S
N1319  Fe1398  2.091   .     S
N1320  N2919   1.360   .     S
N1320  Fe1400  2.139   .     S
C1325  C1327   1.360   .     S
C1325  N1331   1.360   .     D
C1325  H1333   0.950   .     S
C1326  C1327   1.360   .     S
C1326  N1332   1.360   .     D
C1326  H1334   0.950   .     S
C1327  C1328   1.500   .     D
C1328  C1330   1.390   .     S
C1328  C1389   1.390   .     S
C1329  C1330   1.390   .     D
C1329  H1335   0.950   .     S
C1329  C1388   1.390   .     S
C1330  H1336   0.950   .     S
N1331  N1332   1.360   .     S
N1332  Fe1399  2.139   .     S
C1337  C1339   1.360   .     S
C1337  N1343   1.360   .     D
C1337  H1345   0.950   .     S
C1338  C1339   1.360   .     S
C1338  N1344   1.360   .     D
C1338  H1346   0.950   .     S
C1339  C1340   1.500   .     D
C1340  C1342   1.390   .     S
C1340  C1377   1.390   .     S
C1341  C1342   1.390   .     D
C1341  H1347   0.950   .     S
C1341  C1376   1.390   .     S
C1342  H1348   0.950   .     S
N1343  N1344   1.360   .     S
N1343  Fe1498  2.091   .     S
N1344  Fe1500  2.139   .     S
C1349  C1351   1.360   .     S
C1349  N1355   1.360   .     D
C1349  H1357   0.950   .     S
C1350  C6151   1.360   1_554 S
C1350  N1356   1.360   .     D
C1350  H1358   0.950   .     S
C1351  C2950   1.360   .     S
C1351  C1352   1.500   .     D
C1352  C1354   1.390   .     S
C1352  C2917   1.390   .     S
C1353  C1354   1.390   .     D
C1353  H1359   0.950   .     S
C1353  C2916   1.390   .     S
C1354  H1360   0.950   .     S
N1355  N2956   1.360   .     S
N1355  Fe199   2.091   1_565 S
N1356  N6155   1.360   1_554 S
N1356  Fe1397  2.139   .     S
C1361  C1363   1.360   .     S
C1361  N1367   1.360   .     D
C1361  H1369   0.950   .     S
C1362  C6163   1.360   1_554 S
C1362  N1368   1.360   .     D
C1362  H1370   0.950   .     S
C1363  C2962   1.360   .     S
C1363  C1364   1.500   .     D
C1364  C1366   1.390   .     S
C1364  C2905   1.390   .     S
C1365  C1366   1.390   .     D
C1365  H1371   0.950   .     S
C1365  C2904   1.390   .     S
C1366  H1372   0.950   .     S
N1367  N2968   1.360   .     S
N1367  Fe1500  2.091   .     S
N1368  N6167   1.360   1_554 S
N1368  Fe1498  2.139   .     S
C1373  C1375   1.360   .     S
C1373  N1379   1.360   .     D
C1373  H1381   0.950   .     S
C1374  C1375   1.360   .     S
C1374  N1380   1.360   .     D
C1374  H1382   0.950   .     S
C1375  C1376   1.500   .     D
C1376  C1378   1.390   .     S
C1377  C1378   1.390   .     D
C1377  H1383   0.950   .     S
C1378  H1384   0.950   .     S
N1379  N1380   1.360   .     S
N1379  Fe199   2.091   1_565 S
N1380  Fe1397  2.139   .     S
C1385  C1387   1.360   .     S
C1385  N1391   1.360   .     D
C1385  H1393   0.950   .     S
C1386  C1387   1.360   .     S
C1386  N1392   1.360   .     D
C1386  H1394   0.950   .     S
C1387  C1388   1.500   .     D
C1388  C1390   1.390   .     S
C1389  C1390   1.390   .     D
C1389  H1395   0.950   .     S
C1390  H1396   0.950   .     S
N1391  N1392   1.360   .     S
N1391  Fe1400  2.091   .     S
N1392  Fe1398  2.139   .     S
Fe1397 N107    2.091   1_565 S
Fe1397 N131    2.091   1_565 S
C1401  C1403   1.360   .     S
C1401  N1407   1.360   .     D
C1401  H1409   0.950   .     S
C1402  C3003   1.360   .     S
C1402  N1408   1.360   .     D
C1402  H1410   0.950   .     S
C1403  C6202   1.360   1_554 S
C1403  C1404   1.500   .     D
C1404  C1406   1.390   .     S
C1404  C6265   1.390   1_554 S
C1405  C1406   1.390   .     D
C1405  H1411   0.950   .     S
C1405  C6264   1.390   1_554 S
C1406  H1412   0.950   .     S
N1407  N6208   1.360   1_554 S
N1408  N3007   1.360   .     S
N1408  Fe1499  2.139   .     S
C1413  C1415   1.360   .     S
C1413  N1419   1.360   .     D
C1413  H1421   0.950   .     S
C1414  C3015   1.360   .     S
C1414  N1420   1.360   .     D
C1414  H1422   0.950   .     S
C1415  C6214   1.360   1_554 S
C1415  C1416   1.500   .     D
C1416  C1418   1.390   .     S
C1416  C6253   1.390   1_554 S
C1417  C1418   1.390   .     D
C1417  H1423   0.950   .     S
C1417  C6252   1.390   1_554 S
C1418  H1424   0.950   .     S
N1419  N6220   1.360   1_554 S
N1419  Fe1498  2.091   .     S
N1420  N3019   1.360   .     S
N1420  Fe1500  2.139   .     S
C1425  C1427   1.360   .     S
C1425  N1431   1.360   .     D
C1425  H1433   0.950   .     S
C1426  C1427   1.360   .     S
C1426  N1432   1.360   .     D
C1426  H1434   0.950   .     S
C1427  C1428   1.500   .     D
C1428  C1430   1.390   .     S
C1428  C1489   1.390   .     S
C1429  C1430   1.390   .     D
C1429  H1435   0.950   .     S
C1429  C1488   1.390   .     S
C1430  H1436   0.950   .     S
N1431  N1432   1.360   .     S
N1432  Fe1499  2.139   .     S
C1437  C1439   1.360   .     S
C1437  N1443   1.360   .     D
C1437  H1445   0.950   .     S
C1438  C1439   1.360   .     S
C1438  N1444   1.360   .     D
C1438  H1446   0.950   .     S
C1439  C1440   1.500   .     D
C1440  C1442   1.390   .     S
C1440  C1477   1.390   .     S
C1441  C1442   1.390   .     D
C1441  H1447   0.950   .     S
C1441  C1476   1.390   .     S
C1442  H1448   0.950   .     S
N1443  N1444   1.360   .     S
N1443  Fe1598  2.091   .     S
N1444  Fe1600  2.139   .     S
C1449  C1451   1.360   .     S
C1449  N1455   1.360   .     D
C1449  H1457   0.950   .     S
C1450  C6251   1.360   1_554 S
C1450  N1456   1.360   .     D
C1450  H1458   0.950   .     S
C1451  C3050   1.360   .     S
C1451  C1452   1.500   .     D
C1452  C1454   1.390   .     S
C1452  C3017   1.390   .     S
C1453  C1454   1.390   .     D
C1453  H1459   0.950   .     S
C1453  C3016   1.390   .     S
C1454  H1460   0.950   .     S
N1455  N3056   1.360   .     S
N1455  Fe299   2.091   1_565 S
N1456  N6255   1.360   1_554 S
N1456  Fe1497  2.139   .     S
C1461  C1463   1.360   .     S
C1461  N1467   1.360   .     D
C1461  H1469   0.950   .     S
C1462  C6263   1.360   1_554 S
C1462  N1468   1.360   .     D
C1462  H1470   0.950   .     S
C1463  C3062   1.360   .     S
C1463  C1464   1.500   .     D
C1464  C1466   1.390   .     S
C1464  C3005   1.390   .     S
C1465  C1466   1.390   .     D
C1465  H1471   0.950   .     S
C1465  C3004   1.390   .     S
C1466  H1472   0.950   .     S
N1467  N3068   1.360   .     S
N1467  Fe1600  2.091   .     S
N1468  N6267   1.360   1_554 S
N1468  Fe1598  2.139   .     S
C1473  C1475   1.360   .     S
C1473  N1479   1.360   .     D
C1473  H1481   0.950   .     S
C1474  C1475   1.360   .     S
C1474  N1480   1.360   .     D
C1474  H1482   0.950   .     S
C1475  C1476   1.500   .     D
C1476  C1478   1.390   .     S
C1477  C1478   1.390   .     D
C1477  H1483   0.950   .     S
C1478  H1484   0.950   .     S
N1479  N1480   1.360   .     S
N1479  Fe299   2.091   1_565 S
N1480  Fe1497  2.139   .     S
C1485  C1487   1.360   .     S
C1485  N1491   1.360   .     D
C1485  H1493   0.950   .     S
C1486  C1487   1.360   .     S
C1486  N1492   1.360   .     D
C1486  H1494   0.950   .     S
C1487  C1488   1.500   .     D
C1488  C1490   1.390   .     S
C1489  C1490   1.390   .     D
C1489  H1495   0.950   .     S
C1490  H1496   0.950   .     S
N1491  N1492   1.360   .     S
N1491  Fe1500  2.091   .     S
N1492  Fe1498  2.139   .     S
Fe1497 N207    2.091   1_565 S
Fe1497 N231    2.091   1_565 S
C1501  C1503   1.360   .     S
C1501  N1507   1.360   .     D
C1501  H1509   0.950   .     S
C1502  C3103   1.360   .     S
C1502  N1508   1.360   .     D
C1502  H1510   0.950   .     S
C1503  C6302   1.360   1_554 S
C1503  C1504   1.500   .     D
C1504  C1506   1.390   .     S
C1504  C6365   1.390   1_554 S
C1505  C1506   1.390   .     D
C1505  H1511   0.950   .     S
C1505  C6364   1.390   1_554 S
C1506  H1512   0.950   .     S
N1507  N6308   1.360   1_554 S
N1508  N3107   1.360   .     S
N1508  Fe1599  2.139   .     S
C1513  C1515   1.360   .     S
C1513  N1519   1.360   .     D
C1513  H1521   0.950   .     S
C1514  C3115   1.360   .     S
C1514  N1520   1.360   .     D
C1514  H1522   0.950   .     S
C1515  C6314   1.360   1_554 S
C1515  C1516   1.500   .     D
C1516  C1518   1.390   .     S
C1516  C6353   1.390   1_554 S
C1517  C1518   1.390   .     D
C1517  H1523   0.950   .     S
C1517  C6352   1.390   1_554 S
C1518  H1524   0.950   .     S
N1519  N6320   1.360   1_554 S
N1519  Fe1598  2.091   .     S
N1520  N3119   1.360   .     S
N1520  Fe1600  2.139   .     S
C1525  C1527   1.360   .     S
C1525  N1531   1.360   .     D
C1525  H1533   0.950   .     S
C1526  C1527   1.360   .     S
C1526  N1532   1.360   .     D
C1526  H1534   0.950   .     S
C1527  C1528   1.500   .     D
C1528  C1530   1.390   .     S
C1528  C1589   1.390   .     S
C1529  C1530   1.390   .     D
C1529  H1535   0.950   .     S
C1529  C1588   1.390   .     S
C1530  H1536   0.950   .     S
N1531  N1532   1.360   .     S
N1532  Fe1599  2.139   .     S
C1537  C1539   1.360   .     S
C1537  N1543   1.360   .     D
C1537  H1545   0.950   .     S
C1538  C1539   1.360   .     S
C1538  N1544   1.360   .     D
C1538  H1546   0.950   .     S
C1539  C1540   1.500   .     D
C1540  C1542   1.390   .     S
C1540  C1577   1.390   .     S
C1541  C1542   1.390   .     D
C1541  H1547   0.950   .     S
C1541  C1576   1.390   .     S
C1542  H1548   0.950   .     S
N1543  N1544   1.360   .     S
N1543  Fe1298  2.091   1_655 S
N1544  Fe1300  2.139   1_655 S
C1549  C1551   1.360   .     S
C1549  N1555   1.360   .     D
C1549  H1557   0.950   .     S
C1550  C6351   1.360   1_554 S
C1550  N1556   1.360   .     D
C1550  H1558   0.950   .     S
C1551  C3150   1.360   .     S
C1551  C1552   1.500   .     D
C1552  C1554   1.390   .     S
C1552  C3117   1.390   .     S
C1553  C1554   1.390   .     D
C1553  H1559   0.950   .     S
C1553  C3116   1.390   .     S
C1554  H1560   0.950   .     S
N1555  N3156   1.360   .     S
N1555  Fe399   2.091   1_565 S
N1556  N6355   1.360   1_554 S
N1556  Fe1597  2.139   .     S
C1561  C1563   1.360   .     S
C1561  N1567   1.360   .     D
C1561  H1569   0.950   .     S
C1562  C6363   1.360   1_554 S
C1562  N1568   1.360   .     D
C1562  H1570   0.950   .     S
C1563  C3162   1.360   .     S
C1563  C1564   1.500   .     D
C1564  C1566   1.390   .     S
C1564  C3105   1.390   .     S
C1565  C1566   1.390   .     D
C1565  H1571   0.950   .     S
C1565  C3104   1.390   .     S
C1566  H1572   0.950   .     S
N1567  N3168   1.360   .     S
N1567  Fe1300  2.091   1_655 S
N1568  N6367   1.360   1_554 S
N1568  Fe1298  2.139   1_655 S
C1573  C1575   1.360   .     S
C1573  N1579   1.360   .     D
C1573  H1581   0.950   .     S
C1574  C1575   1.360   .     S
C1574  N1580   1.360   .     D
C1574  H1582   0.950   .     S
C1575  C1576   1.500   .     D
C1576  C1578   1.390   .     S
C1577  C1578   1.390   .     D
C1577  H1583   0.950   .     S
C1578  H1584   0.950   .     S
N1579  N1580   1.360   .     S
N1579  Fe399   2.091   1_565 S
N1580  Fe1597  2.139   .     S
C1585  C1587   1.360   .     S
C1585  N1591   1.360   .     D
C1585  H1593   0.950   .     S
C1586  C1587   1.360   .     S
C1586  N1592   1.360   .     D
C1586  H1594   0.950   .     S
C1587  C1588   1.500   .     D
C1588  C1590   1.390   .     S
C1589  C1590   1.390   .     D
C1589  H1595   0.950   .     S
C1590  H1596   0.950   .     S
N1591  N1592   1.360   .     S
N1591  Fe1600  2.091   .     S
N1592  Fe1598  2.139   .     S
Fe1597 N307    2.091   1_565 S
Fe1597 N331    2.091   1_565 S
C1601  C1603   1.360   .     S
C1601  N1607   1.360   .     D
C1601  H1609   0.950   .     S
C1602  C3203   1.360   .     S
C1602  N1608   1.360   .     D
C1602  H1610   0.950   .     S
C1603  C1604   1.500   .     D
C1604  C1606   1.390   .     S
C1605  C1606   1.390   .     D
C1605  H1611   0.950   .     S
C1606  H1612   0.950   .     S
N1607  Fe2897  2.091   1_545 S
N1608  N3207   1.360   .     S
N1608  Fe1699  2.139   .     S
C1613  C1615   1.360   .     S
C1613  N1619   1.360   .     D
C1613  H1621   0.950   .     S
C1614  C3215   1.360   .     S
C1614  N1620   1.360   .     D
C1614  H1622   0.950   .     S
C1615  C1616   1.500   .     D
C1616  C1618   1.390   .     S
C1617  C1618   1.390   .     D
C1617  H1623   0.950   .     S
C1618  H1624   0.950   .     S
N1619  Fe1698  2.091   .     S
N1620  N3219   1.360   .     S
N1620  Fe1700  2.139   .     S
C1625  C1627   1.360   .     S
C1625  N1631   1.360   .     D
C1625  H1633   0.950   .     S
C1626  C1627   1.360   .     S
C1626  N1632   1.360   .     D
C1626  H1634   0.950   .     S
C1627  C1628   1.500   .     D
C1628  C1630   1.390   .     S
C1628  C1689   1.390   .     S
C1629  C1630   1.390   .     D
C1629  H1635   0.950   .     S
C1629  C1688   1.390   .     S
C1630  H1636   0.950   .     S
N1631  N1632   1.360   .     S
N1631  Fe2897  2.091   1_545 S
N1632  Fe1699  2.139   .     S
C1637  C1639   1.360   .     S
C1637  N1643   1.360   .     D
C1637  H1645   0.950   .     S
C1638  C1639   1.360   .     S
C1638  N1644   1.360   .     D
C1638  H1646   0.950   .     S
C1639  C1640   1.500   .     D
C1640  C1642   1.390   .     S
C1640  C1677   1.390   .     S
C1641  C1642   1.390   .     D
C1641  H1647   0.950   .     S
C1641  C1676   1.390   .     S
C1642  H1648   0.950   .     S
N1643  N1644   1.360   .     S
N1643  Fe1798  2.091   .     S
N1644  Fe1800  2.139   .     S
C1649  C1651   1.360   .     S
C1649  N1655   1.360   .     D
C1649  H1657   0.950   .     S
C1650  N1656   1.360   .     D
C1650  H1658   0.950   .     S
C1651  C3250   1.360   .     S
C1651  C1652   1.500   .     D
C1652  C1654   1.390   .     S
C1652  C3217   1.390   .     S
C1653  C1654   1.390   .     D
C1653  H1659   0.950   .     S
C1653  C3216   1.390   .     S
C1654  H1660   0.950   .     S
N1655  N3256   1.360   .     S
N1655  Fe2099  2.091   .     S
N1656  Fe1697  2.139   .     S
C1661  C1663   1.360   .     S
C1661  N1667   1.360   .     D
C1661  H1669   0.950   .     S
C1662  N1668   1.360   .     D
C1662  H1670   0.950   .     S
C1663  C3262   1.360   .     S
C1663  C1664   1.500   .     D
C1664  C1666   1.390   .     S
C1664  C3205   1.390   .     S
C1665  C1666   1.390   .     D
C1665  H1671   0.950   .     S
C1665  C3204   1.390   .     S
C1666  H1672   0.950   .     S
N1667  N3268   1.360   .     S
N1667  Fe1800  2.091   .     S
N1668  Fe1798  2.139   .     S
C1673  C1675   1.360   .     S
C1673  N1679   1.360   .     D
C1673  H1681   0.950   .     S
C1674  C1675   1.360   .     S
C1674  N1680   1.360   .     D
C1674  H1682   0.950   .     S
C1675  C1676   1.500   .     D
C1676  C1678   1.390   .     S
C1677  C1678   1.390   .     D
C1677  H1683   0.950   .     S
C1678  H1684   0.950   .     S
N1679  N1680   1.360   .     S
N1679  Fe2099  2.091   .     S
N1680  Fe1697  2.139   .     S
C1685  C1687   1.360   .     S
C1685  N1691   1.360   .     D
C1685  H1693   0.950   .     S
C1686  C1687   1.360   .     S
C1686  N1692   1.360   .     D
C1686  H1694   0.950   .     S
C1687  C1688   1.500   .     D
C1688  C1690   1.390   .     S
C1689  C1690   1.390   .     D
C1689  H1695   0.950   .     S
C1690  H1696   0.950   .     S
N1691  N1692   1.360   .     S
N1691  Fe1700  2.091   .     S
N1692  Fe1698  2.139   .     S
Fe1697 N2007   2.091   .     S
Fe1697 N2031   2.091   .     S
Fe1698 N1943   2.091   1_455 S
Fe1698 N1968   2.139   1_455 S
Fe1699 N2855   2.091   1_545 S
Fe1699 N2879   2.091   1_545 S
Fe1700 N1967   2.091   1_455 S
Fe1700 N1944   2.139   1_455 S
C1701  C1703   1.360   .     S
C1701  N1707   1.360   .     D
C1701  H1709   0.950   .     S
C1702  C3303   1.360   .     S
C1702  N1708   1.360   .     D
C1702  H1710   0.950   .     S
C1703  C1704   1.500   .     D
C1704  C1706   1.390   .     S
C1705  C1706   1.390   .     D
C1705  H1711   0.950   .     S
C1706  H1712   0.950   .     S
N1707  Fe2997  2.091   1_545 S
N1708  N3307   1.360   .     S
N1708  Fe1799  2.139   .     S
C1713  C1715   1.360   .     S
C1713  N1719   1.360   .     D
C1713  H1721   0.950   .     S
C1714  C3315   1.360   .     S
C1714  N1720   1.360   .     D
C1714  H1722   0.950   .     S
C1715  C1716   1.500   .     D
C1716  C1718   1.390   .     S
C1717  C1718   1.390   .     D
C1717  H1723   0.950   .     S
C1718  H1724   0.950   .     S
N1719  Fe1798  2.091   .     S
N1720  N3319   1.360   .     S
N1720  Fe1800  2.139   .     S
C1725  C1727   1.360   .     S
C1725  N1731   1.360   .     D
C1725  H1733   0.950   .     S
C1726  C1727   1.360   .     S
C1726  N1732   1.360   .     D
C1726  H1734   0.950   .     S
C1727  C1728   1.500   .     D
C1728  C1730   1.390   .     S
C1728  C1789   1.390   .     S
C1729  C1730   1.390   .     D
C1729  H1735   0.950   .     S
C1729  C1788   1.390   .     S
C1730  H1736   0.950   .     S
N1731  N1732   1.360   .     S
N1731  Fe2997  2.091   1_545 S
N1732  Fe1799  2.139   .     S
C1737  C1739   1.360   .     S
C1737  N1743   1.360   .     D
C1737  H1745   0.950   .     S
C1738  C1739   1.360   .     S
C1738  N1744   1.360   .     D
C1738  H1746   0.950   .     S
C1739  C1740   1.500   .     D
C1740  C1742   1.390   .     S
C1740  C1777   1.390   .     S
C1741  C1742   1.390   .     D
C1741  H1747   0.950   .     S
C1741  C1776   1.390   .     S
C1742  H1748   0.950   .     S
N1743  N1744   1.360   .     S
N1743  Fe1898  2.091   .     S
N1744  Fe1900  2.139   .     S
C1749  C1751   1.360   .     S
C1749  N1755   1.360   .     D
C1749  H1757   0.950   .     S
C1750  N1756   1.360   .     D
C1750  H1758   0.950   .     S
C1751  C3350   1.360   .     S
C1751  C1752   1.500   .     D
C1752  C1754   1.390   .     S
C1752  C3317   1.390   .     S
C1753  C1754   1.390   .     D
C1753  H1759   0.950   .     S
C1753  C3316   1.390   .     S
C1754  H1760   0.950   .     S
N1755  N3356   1.360   .     S
N1755  Fe2199  2.091   .     S
N1756  Fe1797  2.139   .     S
C1761  C1763   1.360   .     S
C1761  N1767   1.360   .     D
C1761  H1769   0.950   .     S
C1762  N1768   1.360   .     D
C1762  H1770   0.950   .     S
C1763  C3362   1.360   .     S
C1763  C1764   1.500   .     D
C1764  C1766   1.390   .     S
C1764  C3305   1.390   .     S
C1765  C1766   1.390   .     D
C1765  H1771   0.950   .     S
C1765  C3304   1.390   .     S
C1766  H1772   0.950   .     S
N1767  N3368   1.360   .     S
N1767  Fe1900  2.091   .     S
N1768  Fe1898  2.139   .     S
C1773  C1775   1.360   .     S
C1773  N1779   1.360   .     D
C1773  H1781   0.950   .     S
C1774  C1775   1.360   .     S
C1774  N1780   1.360   .     D
C1774  H1782   0.950   .     S
C1775  C1776   1.500   .     D
C1776  C1778   1.390   .     S
C1777  C1778   1.390   .     D
C1777  H1783   0.950   .     S
C1778  H1784   0.950   .     S
N1779  N1780   1.360   .     S
N1779  Fe2199  2.091   .     S
N1780  Fe1797  2.139   .     S
C1785  C1787   1.360   .     S
C1785  N1791   1.360   .     D
C1785  H1793   0.950   .     S
C1786  C1787   1.360   .     S
C1786  N1792   1.360   .     D
C1786  H1794   0.950   .     S
C1787  C1788   1.500   .     D
C1788  C1790   1.390   .     S
C1789  C1790   1.390   .     D
C1789  H1795   0.950   .     S
C1790  H1796   0.950   .     S
N1791  N1792   1.360   .     S
N1791  Fe1800  2.091   .     S
N1792  Fe1798  2.139   .     S
Fe1797 N2107   2.091   .     S
Fe1797 N2131   2.091   .     S
Fe1799 N2955   2.091   1_545 S
Fe1799 N2979   2.091   1_545 S
C1801  C1803   1.360   .     S
C1801  N1807   1.360   .     D
C1801  H1809   0.950   .     S
C1802  C3403   1.360   .     S
C1802  N1808   1.360   .     D
C1802  H1810   0.950   .     S
C1803  C1804   1.500   .     D
C1804  C1806   1.390   .     S
C1805  C1806   1.390   .     D
C1805  H1811   0.950   .     S
C1806  H1812   0.950   .     S
N1807  Fe3097  2.091   1_545 S
N1808  N3407   1.360   .     S
N1808  Fe1899  2.139   .     S
C1813  C1815   1.360   .     S
C1813  N1819   1.360   .     D
C1813  H1821   0.950   .     S
C1814  C3415   1.360   .     S
C1814  N1820   1.360   .     D
C1814  H1822   0.950   .     S
C1815  C1816   1.500   .     D
C1816  C1818   1.390   .     S
C1817  C1818   1.390   .     D
C1817  H1823   0.950   .     S
C1818  H1824   0.950   .     S
N1819  Fe1898  2.091   .     S
N1820  N3419   1.360   .     S
N1820  Fe1900  2.139   .     S
C1825  C1827   1.360   .     S
C1825  N1831   1.360   .     D
C1825  H1833   0.950   .     S
C1826  C1827   1.360   .     S
C1826  N1832   1.360   .     D
C1826  H1834   0.950   .     S
C1827  C1828   1.500   .     D
C1828  C1830   1.390   .     S
C1828  C1889   1.390   .     S
C1829  C1830   1.390   .     D
C1829  H1835   0.950   .     S
C1829  C1888   1.390   .     S
C1830  H1836   0.950   .     S
N1831  N1832   1.360   .     S
N1831  Fe3097  2.091   1_545 S
N1832  Fe1899  2.139   .     S
C1837  C1839   1.360   .     S
C1837  N1843   1.360   .     D
C1837  H1845   0.950   .     S
C1838  C1839   1.360   .     S
C1838  N1844   1.360   .     D
C1838  H1846   0.950   .     S
C1839  C1840   1.500   .     D
C1840  C1842   1.390   .     S
C1840  C1877   1.390   .     S
C1841  C1842   1.390   .     D
C1841  H1847   0.950   .     S
C1841  C1876   1.390   .     S
C1842  H1848   0.950   .     S
N1843  N1844   1.360   .     S
N1843  Fe1998  2.091   .     S
N1844  Fe2000  2.139   .     S
C1849  C1851   1.360   .     S
C1849  N1855   1.360   .     D
C1849  H1857   0.950   .     S
C1850  N1856   1.360   .     D
C1850  H1858   0.950   .     S
C1851  C3450   1.360   .     S
C1851  C1852   1.500   .     D
C1852  C1854   1.390   .     S
C1852  C3417   1.390   .     S
C1853  C1854   1.390   .     D
C1853  H1859   0.950   .     S
C1853  C3416   1.390   .     S
C1854  H1860   0.950   .     S
N1855  N3456   1.360   .     S
N1855  Fe2299  2.091   .     S
N1856  Fe1897  2.139   .     S
C1861  C1863   1.360   .     S
C1861  N1867   1.360   .     D
C1861  H1869   0.950   .     S
C1862  N1868   1.360   .     D
C1862  H1870   0.950   .     S
C1863  C3462   1.360   .     S
C1863  C1864   1.500   .     D
C1864  C1866   1.390   .     S
C1864  C3405   1.390   .     S
C1865  C1866   1.390   .     D
C1865  H1871   0.950   .     S
C1865  C3404   1.390   .     S
C1866  H1872   0.950   .     S
N1867  N3468   1.360   .     S
N1867  Fe2000  2.091   .     S
N1868  Fe1998  2.139   .     S
C1873  C1875   1.360   .     S
C1873  N1879   1.360   .     D
C1873  H1881   0.950   .     S
C1874  C1875   1.360   .     S
C1874  N1880   1.360   .     D
C1874  H1882   0.950   .     S
C1875  C1876   1.500   .     D
C1876  C1878   1.390   .     S
C1877  C1878   1.390   .     D
C1877  H1883   0.950   .     S
C1878  H1884   0.950   .     S
N1879  N1880   1.360   .     S
N1879  Fe2299  2.091   .     S
N1880  Fe1897  2.139   .     S
C1885  C1887   1.360   .     S
C1885  N1891   1.360   .     D
C1885  H1893   0.950   .     S
C1886  C1887   1.360   .     S
C1886  N1892   1.360   .     D
C1886  H1894   0.950   .     S
C1887  C1888   1.500   .     D
C1888  C1890   1.390   .     S
C1889  C1890   1.390   .     D
C1889  H1895   0.950   .     S
C1890  H1896   0.950   .     S
N1891  N1892   1.360   .     S
N1891  Fe1900  2.091   .     S
N1892  Fe1898  2.139   .     S
Fe1897 N2207   2.091   .     S
Fe1897 N2231   2.091   .     S
Fe1899 N3055   2.091   1_545 S
Fe1899 N3079   2.091   1_545 S
C1901  C1903   1.360   .     S
C1901  N1907   1.360   .     D
C1901  H1909   0.950   .     S
C1902  C3503   1.360   .     S
C1902  N1908   1.360   .     D
C1902  H1910   0.950   .     S
C1903  C1904   1.500   .     D
C1904  C1906   1.390   .     S
C1905  C1906   1.390   .     D
C1905  H1911   0.950   .     S
C1906  H1912   0.950   .     S
N1907  Fe3197  2.091   1_545 S
N1908  N3507   1.360   .     S
N1908  Fe1999  2.139   .     S
C1913  C1915   1.360   .     S
C1913  N1919   1.360   .     D
C1913  H1921   0.950   .     S
C1914  C3515   1.360   .     S
C1914  N1920   1.360   .     D
C1914  H1922   0.950   .     S
C1915  C1916   1.500   .     D
C1916  C1918   1.390   .     S
C1917  C1918   1.390   .     D
C1917  H1923   0.950   .     S
C1918  H1924   0.950   .     S
N1919  Fe1998  2.091   .     S
N1920  N3519   1.360   .     S
N1920  Fe2000  2.139   .     S
C1925  C1927   1.360   .     S
C1925  N1931   1.360   .     D
C1925  H1933   0.950   .     S
C1926  C1927   1.360   .     S
C1926  N1932   1.360   .     D
C1926  H1934   0.950   .     S
C1927  C1928   1.500   .     D
C1928  C1930   1.390   .     S
C1928  C1989   1.390   .     S
C1929  C1930   1.390   .     D
C1929  H1935   0.950   .     S
C1929  C1988   1.390   .     S
C1930  H1936   0.950   .     S
N1931  N1932   1.360   .     S
N1931  Fe3197  2.091   1_545 S
N1932  Fe1999  2.139   .     S
C1937  C1939   1.360   .     S
C1937  N1943   1.360   .     D
C1937  H1945   0.950   .     S
C1938  C1939   1.360   .     S
C1938  N1944   1.360   .     D
C1938  H1946   0.950   .     S
C1939  C1940   1.500   .     D
C1940  C1942   1.390   .     S
C1940  C1977   1.390   .     S
C1941  C1942   1.390   .     D
C1941  H1947   0.950   .     S
C1941  C1976   1.390   .     S
C1942  H1948   0.950   .     S
N1943  N1944   1.360   .     S
N1943  Fe1698  2.091   1_655 S
N1944  Fe1700  2.139   1_655 S
C1949  C1951   1.360   .     S
C1949  N1955   1.360   .     D
C1949  H1957   0.950   .     S
C1950  N1956   1.360   .     D
C1950  H1958   0.950   .     S
C1951  C3550   1.360   .     S
C1951  C1952   1.500   .     D
C1952  C1954   1.390   .     S
C1952  C3517   1.390   .     S
C1953  C1954   1.390   .     D
C1953  H1959   0.950   .     S
C1953  C3516   1.390   .     S
C1954  H1960   0.950   .     S
N1955  N3556   1.360   .     S
N1955  Fe2399  2.091   .     S
N1956  Fe1997  2.139   .     S
C1961  C1963   1.360   .     S
C1961  N1967   1.360   .     D
C1961  H1969   0.950   .     S
C1962  N1968   1.360   .     D
C1962  H1970   0.950   .     S
C1963  C3562   1.360   .     S
C1963  C1964   1.500   .     D
C1964  C1966   1.390   .     S
C1964  C3505   1.390   .     S
C1965  C1966   1.390   .     D
C1965  H1971   0.950   .     S
C1965  C3504   1.390   .     S
C1966  H1972   0.950   .     S
N1967  N3568   1.360   .     S
N1967  Fe1700  2.091   1_655 S
N1968  Fe1698  2.139   1_655 S
C1973  C1975   1.360   .     S
C1973  N1979   1.360   .     D
C1973  H1981   0.950   .     S
C1974  C1975   1.360   .     S
C1974  N1980   1.360   .     D
C1974  H1982   0.950   .     S
C1975  C1976   1.500   .     D
C1976  C1978   1.390   .     S
C1977  C1978   1.390   .     D
C1977  H1983   0.950   .     S
C1978  H1984   0.950   .     S
N1979  N1980   1.360   .     S
N1979  Fe2399  2.091   .     S
N1980  Fe1997  2.139   .     S
C1985  C1987   1.360   .     S
C1985  N1991   1.360   .     D
C1985  H1993   0.950   .     S
C1986  C1987   1.360   .     S
C1986  N1992   1.360   .     D
C1986  H1994   0.950   .     S
C1987  C1988   1.500   .     D
C1988  C1990   1.390   .     S
C1989  C1990   1.390   .     D
C1989  H1995   0.950   .     S
C1990  H1996   0.950   .     S
N1991  N1992   1.360   .     S
N1991  Fe2000  2.091   .     S
N1992  Fe1998  2.139   .     S
Fe1997 N2307   2.091   .     S
Fe1997 N2331   2.091   .     S
Fe1999 N3155   2.091   1_545 S
Fe1999 N3179   2.091   1_545 S
C2001  C2003   1.360   .     S
C2001  N2007   1.360   .     D
C2001  H2009   0.950   .     S
C2002  C3603   1.360   .     S
C2002  N2008   1.360   .     D
C2002  H2010   0.950   .     S
C2003  C2004   1.500   .     D
C2004  C2006   1.390   .     S
C2005  C2006   1.390   .     D
C2005  H2011   0.950   .     S
C2006  H2012   0.950   .     S
N2008  N3607   1.360   .     S
N2008  Fe2099  2.139   .     S
C2013  C2015   1.360   .     S
C2013  N2019   1.360   .     D
C2013  H2021   0.950   .     S
C2014  C3615   1.360   .     S
C2014  N2020   1.360   .     D
C2014  H2022   0.950   .     S
C2015  C2016   1.500   .     D
C2016  C2018   1.390   .     S
C2017  C2018   1.390   .     D
C2017  H2023   0.950   .     S
C2018  H2024   0.950   .     S
N2019  Fe2098  2.091   .     S
N2020  N3619   1.360   .     S
N2020  Fe2100  2.139   .     S
C2025  C2027   1.360   .     S
C2025  N2031   1.360   .     D
C2025  H2033   0.950   .     S
C2026  C2027   1.360   .     S
C2026  N2032   1.360   .     D
C2026  H2034   0.950   .     S
C2027  C2028   1.500   .     D
C2028  C2030   1.390   .     S
C2028  C2089   1.390   .     S
C2029  C2030   1.390   .     D
C2029  H2035   0.950   .     S
C2029  C2088   1.390   .     S
C2030  H2036   0.950   .     S
N2031  N2032   1.360   .     S
N2032  Fe2099  2.139   .     S
C2037  C2039   1.360   .     S
C2037  N2043   1.360   .     D
C2037  H2045   0.950   .     S
C2038  C2039   1.360   .     S
C2038  N2044   1.360   .     D
C2038  H2046   0.950   .     S
C2039  C2040   1.500   .     D
C2040  C2042   1.390   .     S
C2040  C2077   1.390   .     S
C2041  C2042   1.390   .     D
C2041  H2047   0.950   .     S
C2041  C2076   1.390   .     S
C2042  H2048   0.950   .     S
N2043  N2044   1.360   .     S
N2043  Fe2198  2.091   .     S
N2044  Fe2200  2.139   .     S
C2049  C2051   1.360   .     S
C2049  N2055   1.360   .     D
C2049  H2057   0.950   .     S
C2050  N2056   1.360   .     D
C2050  H2058   0.950   .     S
C2051  C3650   1.360   .     S
C2051  C2052   1.500   .     D
C2052  C2054   1.390   .     S
C2052  C3617   1.390   .     S
C2053  C2054   1.390   .     D
C2053  H2059   0.950   .     S
C2053  C3616   1.390   .     S
C2054  H2060   0.950   .     S
N2055  N3656   1.360   .     S
N2055  Fe2499  2.091   .     S
N2056  Fe2097  2.139   .     S
C2061  C2063   1.360   .     S
C2061  N2067   1.360   .     D
C2061  H2069   0.950   .     S
C2062  N2068   1.360   .     D
C2062  H2070   0.950   .     S
C2063  C3662   1.360   .     S
C2063  C2064   1.500   .     D
C2064  C2066   1.390   .     S
C2064  C3605   1.390   .     S
C2065  C2066   1.390   .     D
C2065  H2071   0.950   .     S
C2065  C3604   1.390   .     S
C2066  H2072   0.950   .     S
N2067  N3668   1.360   .     S
N2067  Fe2200  2.091   .     S
N2068  Fe2198  2.139   .     S
C2073  C2075   1.360   .     S
C2073  N2079   1.360   .     D
C2073  H2081   0.950   .     S
C2074  C2075   1.360   .     S
C2074  N2080   1.360   .     D
C2074  H2082   0.950   .     S
C2075  C2076   1.500   .     D
C2076  C2078   1.390   .     S
C2077  C2078   1.390   .     D
C2077  H2083   0.950   .     S
C2078  H2084   0.950   .     S
N2079  N2080   1.360   .     S
N2079  Fe2499  2.091   .     S
N2080  Fe2097  2.139   .     S
C2085  C2087   1.360   .     S
C2085  N2091   1.360   .     D
C2085  H2093   0.950   .     S
C2086  C2087   1.360   .     S
C2086  N2092   1.360   .     D
C2086  H2094   0.950   .     S
C2087  C2088   1.500   .     D
C2088  C2090   1.390   .     S
C2089  C2090   1.390   .     D
C2089  H2095   0.950   .     S
C2090  H2096   0.950   .     S
N2091  N2092   1.360   .     S
N2091  Fe2100  2.091   .     S
N2092  Fe2098  2.139   .     S
Fe2097 N2407   2.091   .     S
Fe2097 N2431   2.091   .     S
Fe2098 N2343   2.091   1_455 S
Fe2098 N2368   2.139   1_455 S
Fe2100 N2367   2.091   1_455 S
Fe2100 N2344   2.139   1_455 S
C2101  C2103   1.360   .     S
C2101  N2107   1.360   .     D
C2101  H2109   0.950   .     S
C2102  C3703   1.360   .     S
C2102  N2108   1.360   .     D
C2102  H2110   0.950   .     S
C2103  C2104   1.500   .     D
C2104  C2106   1.390   .     S
C2105  C2106   1.390   .     D
C2105  H2111   0.950   .     S
C2106  H2112   0.950   .     S
N2108  N3707   1.360   .     S
N2108  Fe2199  2.139   .     S
C2113  C2115   1.360   .     S
C2113  N2119   1.360   .     D
C2113  H2121   0.950   .     S
C2114  C3715   1.360   .     S
C2114  N2120   1.360   .     D
C2114  H2122   0.950   .     S
C2115  C2116   1.500   .     D
C2116  C2118   1.390   .     S
C2117  C2118   1.390   .     D
C2117  H2123   0.950   .     S
C2118  H2124   0.950   .     S
N2119  Fe2198  2.091   .     S
N2120  N3719   1.360   .     S
N2120  Fe2200  2.139   .     S
C2125  C2127   1.360   .     S
C2125  N2131   1.360   .     D
C2125  H2133   0.950   .     S
C2126  C2127   1.360   .     S
C2126  N2132   1.360   .     D
C2126  H2134   0.950   .     S
C2127  C2128   1.500   .     D
C2128  C2130   1.390   .     S
C2128  C2189   1.390   .     S
C2129  C2130   1.390   .     D
C2129  H2135   0.950   .     S
C2129  C2188   1.390   .     S
C2130  H2136   0.950   .     S
N2131  N2132   1.360   .     S
N2132  Fe2199  2.139   .     S
C2137  C2139   1.360   .     S
C2137  N2143   1.360   .     D
C2137  H2145   0.950   .     S
C2138  C2139   1.360   .     S
C2138  N2144   1.360   .     D
C2138  H2146   0.950   .     S
C2139  C2140   1.500   .     D
C2140  C2142   1.390   .     S
C2140  C2177   1.390   .     S
C2141  C2142   1.390   .     D
C2141  H2147   0.950   .     S
C2141  C2176   1.390   .     S
C2142  H2148   0.950   .     S
N2143  N2144   1.360   .     S
N2143  Fe2298  2.091   .     S
N2144  Fe2300  2.139   .     S
C2149  C2151   1.360   .     S
C2149  N2155   1.360   .     D
C2149  H2157   0.950   .     S
C2150  N2156   1.360   .     D
C2150  H2158   0.950   .     S
C2151  C3750   1.360   .     S
C2151  C2152   1.500   .     D
C2152  C2154   1.390   .     S
C2152  C3717   1.390   .     S
C2153  C2154   1.390   .     D
C2153  H2159   0.950   .     S
C2153  C3716   1.390   .     S
C2154  H2160   0.950   .     S
N2155  N3756   1.360   .     S
N2155  Fe2599  2.091   .     S
N2156  Fe2197  2.139   .     S
C2161  C2163   1.360   .     S
C2161  N2167   1.360   .     D
C2161  H2169   0.950   .     S
C2162  N2168   1.360   .     D
C2162  H2170   0.950   .     S
C2163  C3762   1.360   .     S
C2163  C2164   1.500   .     D
C2164  C2166   1.390   .     S
C2164  C3705   1.390   .     S
C2165  C2166   1.390   .     D
C2165  H2171   0.950   .     S
C2165  C3704   1.390   .     S
C2166  H2172   0.950   .     S
N2167  N3768   1.360   .     S
N2167  Fe2300  2.091   .     S
N2168  Fe2298  2.139   .     S
C2173  C2175   1.360   .     S
C2173  N2179   1.360   .     D
C2173  H2181   0.950   .     S
C2174  C2175   1.360   .     S
C2174  N2180   1.360   .     D
C2174  H2182   0.950   .     S
C2175  C2176   1.500   .     D
C2176  C2178   1.390   .     S
C2177  C2178   1.390   .     D
C2177  H2183   0.950   .     S
C2178  H2184   0.950   .     S
N2179  N2180   1.360   .     S
N2179  Fe2599  2.091   .     S
N2180  Fe2197  2.139   .     S
C2185  C2187   1.360   .     S
C2185  N2191   1.360   .     D
C2185  H2193   0.950   .     S
C2186  C2187   1.360   .     S
C2186  N2192   1.360   .     D
C2186  H2194   0.950   .     S
C2187  C2188   1.500   .     D
C2188  C2190   1.390   .     S
C2189  C2190   1.390   .     D
C2189  H2195   0.950   .     S
C2190  H2196   0.950   .     S
N2191  N2192   1.360   .     S
N2191  Fe2200  2.091   .     S
N2192  Fe2198  2.139   .     S
Fe2197 N2507   2.091   .     S
Fe2197 N2531   2.091   .     S
C2201  C2203   1.360   .     S
C2201  N2207   1.360   .     D
C2201  H2209   0.950   .     S
C2202  C3803   1.360   .     S
C2202  N2208   1.360   .     D
C2202  H2210   0.950   .     S
C2203  C2204   1.500   .     D
C2204  C2206   1.390   .     S
C2205  C2206   1.390   .     D
C2205  H2211   0.950   .     S
C2206  H2212   0.950   .     S
N2208  N3807   1.360   .     S
N2208  Fe2299  2.139   .     S
C2213  C2215   1.360   .     S
C2213  N2219   1.360   .     D
C2213  H2221   0.950   .     S
C2214  C3815   1.360   .     S
C2214  N2220   1.360   .     D
C2214  H2222   0.950   .     S
C2215  C2216   1.500   .     D
C2216  C2218   1.390   .     S
C2217  C2218   1.390   .     D
C2217  H2223   0.950   .     S
C2218  H2224   0.950   .     S
N2219  Fe2298  2.091   .     S
N2220  N3819   1.360   .     S
N2220  Fe2300  2.139   .     S
C2225  C2227   1.360   .     S
C2225  N2231   1.360   .     D
C2225  H2233   0.950   .     S
C2226  C2227   1.360   .     S
C2226  N2232   1.360   .     D
C2226  H2234   0.950   .     S
C2227  C2228   1.500   .     D
C2228  C2230   1.390   .     S
C2228  C2289   1.390   .     S
C2229  C2230   1.390   .     D
C2229  H2235   0.950   .     S
C2229  C2288   1.390   .     S
C2230  H2236   0.950   .     S
N2231  N2232   1.360   .     S
N2232  Fe2299  2.139   .     S
C2237  C2239   1.360   .     S
C2237  N2243   1.360   .     D
C2237  H2245   0.950   .     S
C2238  C2239   1.360   .     S
C2238  N2244   1.360   .     D
C2238  H2246   0.950   .     S
C2239  C2240   1.500   .     D
C2240  C2242   1.390   .     S
C2240  C2277   1.390   .     S
C2241  C2242   1.390   .     D
C2241  H2247   0.950   .     S
C2241  C2276   1.390   .     S
C2242  H2248   0.950   .     S
N2243  N2244   1.360   .     S
N2243  Fe2398  2.091   .     S
N2244  Fe2400  2.139   .     S
C2249  C2251   1.360   .     S
C2249  N2255   1.360   .     D
C2249  H2257   0.950   .     S
C2250  N2256   1.360   .     D
C2250  H2258   0.950   .     S
C2251  C3850   1.360   .     S
C2251  C2252   1.500   .     D
C2252  C2254   1.390   .     S
C2252  C3817   1.390   .     S
C2253  C2254   1.390   .     D
C2253  H2259   0.950   .     S
C2253  C3816   1.390   .     S
C2254  H2260   0.950   .     S
N2255  N3856   1.360   .     S
N2255  Fe2699  2.091   .     S
N2256  Fe2297  2.139   .     S
C2261  C2263   1.360   .     S
C2261  N2267   1.360   .     D
C2261  H2269   0.950   .     S
C2262  N2268   1.360   .     D
C2262  H2270   0.950   .     S
C2263  C3862   1.360   .     S
C2263  C2264   1.500   .     D
C2264  C2266   1.390   .     S
C2264  C3805   1.390   .     S
C2265  C2266   1.390   .     D
C2265  H2271   0.950   .     S
C2265  C3804   1.390   .     S
C2266  H2272   0.950   .     S
N2267  N3868   1.360   .     S
N2267  Fe2400  2.091   .     S
N2268  Fe2398  2.139   .     S
C2273  C2275   1.360   .     S
C2273  N2279   1.360   .     D
C2273  H2281   0.950   .     S
C2274  C2275   1.360   .     S
C2274  N2280   1.360   .     D
C2274  H2282   0.950   .     S
C2275  C2276   1.500   .     D
C2276  C2278   1.390   .     S
C2277  C2278   1.390   .     D
C2277  H2283   0.950   .     S
C2278  H2284   0.950   .     S
N2279  N2280   1.360   .     S
N2279  Fe2699  2.091   .     S
N2280  Fe2297  2.139   .     S
C2285  C2287   1.360   .     S
C2285  N2291   1.360   .     D
C2285  H2293   0.950   .     S
C2286  C2287   1.360   .     S
C2286  N2292   1.360   .     D
C2286  H2294   0.950   .     S
C2287  C2288   1.500   .     D
C2288  C2290   1.390   .     S
C2289  C2290   1.390   .     D
C2289  H2295   0.950   .     S
C2290  H2296   0.950   .     S
N2291  N2292   1.360   .     S
N2291  Fe2300  2.091   .     S
N2292  Fe2298  2.139   .     S
Fe2297 N2607   2.091   .     S
Fe2297 N2631   2.091   .     S
C2301  C2303   1.360   .     S
C2301  N2307   1.360   .     D
C2301  H2309   0.950   .     S
C2302  C3903   1.360   .     S
C2302  N2308   1.360   .     D
C2302  H2310   0.950   .     S
C2303  C2304   1.500   .     D
C2304  C2306   1.390   .     S
C2305  C2306   1.390   .     D
C2305  H2311   0.950   .     S
C2306  H2312   0.950   .     S
N2308  N3907   1.360   .     S
N2308  Fe2399  2.139   .     S
C2313  C2315   1.360   .     S
C2313  N2319   1.360   .     D
C2313  H2321   0.950   .     S
C2314  C3915   1.360   .     S
C2314  N2320   1.360   .     D
C2314  H2322   0.950   .     S
C2315  C2316   1.500   .     D
C2316  C2318   1.390   .     S
C2317  C2318   1.390   .     D
C2317  H2323   0.950   .     S
C2318  H2324   0.950   .     S
N2319  Fe2398  2.091   .     S
N2320  N3919   1.360   .     S
N2320  Fe2400  2.139   .     S
C2325  C2327   1.360   .     S
C2325  N2331   1.360   .     D
C2325  H2333   0.950   .     S
C2326  C2327   1.360   .     S
C2326  N2332   1.360   .     D
C2326  H2334   0.950   .     S
C2327  C2328   1.500   .     D
C2328  C2330   1.390   .     S
C2328  C2389   1.390   .     S
C2329  C2330   1.390   .     D
C2329  H2335   0.950   .     S
C2329  C2388   1.390   .     S
C2330  H2336   0.950   .     S
N2331  N2332   1.360   .     S
N2332  Fe2399  2.139   .     S
C2337  C2339   1.360   .     S
C2337  N2343   1.360   .     D
C2337  H2345   0.950   .     S
C2338  C2339   1.360   .     S
C2338  N2344   1.360   .     D
C2338  H2346   0.950   .     S
C2339  C2340   1.500   .     D
C2340  C2342   1.390   .     S
C2340  C2377   1.390   .     S
C2341  C2342   1.390   .     D
C2341  H2347   0.950   .     S
C2341  C2376   1.390   .     S
C2342  H2348   0.950   .     S
N2343  N2344   1.360   .     S
N2343  Fe2098  2.091   1_655 S
N2344  Fe2100  2.139   1_655 S
C2349  C2351   1.360   .     S
C2349  N2355   1.360   .     D
C2349  H2357   0.950   .     S
C2350  N2356   1.360   .     D
C2350  H2358   0.950   .     S
C2351  C3950   1.360   .     S
C2351  C2352   1.500   .     D
C2352  C2354   1.390   .     S
C2352  C3917   1.390   .     S
C2353  C2354   1.390   .     D
C2353  H2359   0.950   .     S
C2353  C3916   1.390   .     S
C2354  H2360   0.950   .     S
N2355  N3956   1.360   .     S
N2355  Fe2799  2.091   .     S
N2356  Fe2397  2.139   .     S
C2361  C2363   1.360   .     S
C2361  N2367   1.360   .     D
C2361  H2369   0.950   .     S
C2362  N2368   1.360   .     D
C2362  H2370   0.950   .     S
C2363  C3962   1.360   .     S
C2363  C2364   1.500   .     D
C2364  C2366   1.390   .     S
C2364  C3905   1.390   .     S
C2365  C2366   1.390   .     D
C2365  H2371   0.950   .     S
C2365  C3904   1.390   .     S
C2366  H2372   0.950   .     S
N2367  N3968   1.360   .     S
N2367  Fe2100  2.091   1_655 S
N2368  Fe2098  2.139   1_655 S
C2373  C2375   1.360   .     S
C2373  N2379   1.360   .     D
C2373  H2381   0.950   .     S
C2374  C2375   1.360   .     S
C2374  N2380   1.360   .     D
C2374  H2382   0.950   .     S
C2375  C2376   1.500   .     D
C2376  C2378   1.390   .     S
C2377  C2378   1.390   .     D
C2377  H2383   0.950   .     S
C2378  H2384   0.950   .     S
N2379  N2380   1.360   .     S
N2379  Fe2799  2.091   .     S
N2380  Fe2397  2.139   .     S
C2385  C2387   1.360   .     S
C2385  N2391   1.360   .     D
C2385  H2393   0.950   .     S
C2386  C2387   1.360   .     S
C2386  N2392   1.360   .     D
C2386  H2394   0.950   .     S
C2387  C2388   1.500   .     D
C2388  C2390   1.390   .     S
C2389  C2390   1.390   .     D
C2389  H2395   0.950   .     S
C2390  H2396   0.950   .     S
N2391  N2392   1.360   .     S
N2391  Fe2400  2.091   .     S
N2392  Fe2398  2.139   .     S
Fe2397 N2707   2.091   .     S
Fe2397 N2731   2.091   .     S
C2401  C2403   1.360   .     S
C2401  N2407   1.360   .     D
C2401  H2409   0.950   .     S
C2402  C4003   1.360   .     S
C2402  N2408   1.360   .     D
C2402  H2410   0.950   .     S
C2403  C2404   1.500   .     D
C2404  C2406   1.390   .     S
C2405  C2406   1.390   .     D
C2405  H2411   0.950   .     S
C2406  H2412   0.950   .     S
N2408  N4007   1.360   .     S
N2408  Fe2499  2.139   .     S
C2413  C2415   1.360   .     S
C2413  N2419   1.360   .     D
C2413  H2421   0.950   .     S
C2414  C4015   1.360   .     S
C2414  N2420   1.360   .     D
C2414  H2422   0.950   .     S
C2415  C2416   1.500   .     D
C2416  C2418   1.390   .     S
C2417  C2418   1.390   .     D
C2417  H2423   0.950   .     S
C2418  H2424   0.950   .     S
N2419  Fe2498  2.091   .     S
N2420  N4019   1.360   .     S
N2420  Fe2500  2.139   .     S
C2425  C2427   1.360   .     S
C2425  N2431   1.360   .     D
C2425  H2433   0.950   .     S
C2426  C2427   1.360   .     S
C2426  N2432   1.360   .     D
C2426  H2434   0.950   .     S
C2427  C2428   1.500   .     D
C2428  C2430   1.390   .     S
C2428  C2489   1.390   .     S
C2429  C2430   1.390   .     D
C2429  H2435   0.950   .     S
C2429  C2488   1.390   .     S
C2430  H2436   0.950   .     S
N2431  N2432   1.360   .     S
N2432  Fe2499  2.139   .     S
C2437  C2439   1.360   .     S
C2437  N2443   1.360   .     D
C2437  H2445   0.950   .     S
C2438  C2439   1.360   .     S
C2438  N2444   1.360   .     D
C2438  H2446   0.950   .     S
C2439  C2440   1.500   .     D
C2440  C2442   1.390   .     S
C2440  C2477   1.390   .     S
C2441  C2442   1.390   .     D
C2441  H2447   0.950   .     S
C2441  C2476   1.390   .     S
C2442  H2448   0.950   .     S
N2443  N2444   1.360   .     S
N2443  Fe2598  2.091   .     S
N2444  Fe2600  2.139   .     S
C2449  C2451   1.360   .     S
C2449  N2455   1.360   .     D
C2449  H2457   0.950   .     S
C2450  N2456   1.360   .     D
C2450  H2458   0.950   .     S
C2451  C4050   1.360   .     S
C2451  C2452   1.500   .     D
C2452  C2454   1.390   .     S
C2452  C4017   1.390   .     S
C2453  C2454   1.390   .     D
C2453  H2459   0.950   .     S
C2453  C4016   1.390   .     S
C2454  H2460   0.950   .     S
N2455  N4056   1.360   .     S
N2455  Fe2899  2.091   .     S
N2456  Fe2497  2.139   .     S
C2461  C2463   1.360   .     S
C2461  N2467   1.360   .     D
C2461  H2469   0.950   .     S
C2462  N2468   1.360   .     D
C2462  H2470   0.950   .     S
C2463  C4062   1.360   .     S
C2463  C2464   1.500   .     D
C2464  C2466   1.390   .     S
C2464  C4005   1.390   .     S
C2465  C2466   1.390   .     D
C2465  H2471   0.950   .     S
C2465  C4004   1.390   .     S
C2466  H2472   0.950   .     S
N2467  N4068   1.360   .     S
N2467  Fe2600  2.091   .     S
N2468  Fe2598  2.139   .     S
C2473  C2475   1.360   .     S
C2473  N2479   1.360   .     D
C2473  H2481   0.950   .     S
C2474  C2475   1.360   .     S
C2474  N2480   1.360   .     D
C2474  H2482   0.950   .     S
C2475  C2476   1.500   .     D
C2476  C2478   1.390   .     S
C2477  C2478   1.390   .     D
C2477  H2483   0.950   .     S
C2478  H2484   0.950   .     S
N2479  N2480   1.360   .     S
N2479  Fe2899  2.091   .     S
N2480  Fe2497  2.139   .     S
C2485  C2487   1.360   .     S
C2485  N2491   1.360   .     D
C2485  H2493   0.950   .     S
C2486  C2487   1.360   .     S
C2486  N2492   1.360   .     D
C2486  H2494   0.950   .     S
C2487  C2488   1.500   .     D
C2488  C2490   1.390   .     S
C2489  C2490   1.390   .     D
C2489  H2495   0.950   .     S
C2490  H2496   0.950   .     S
N2491  N2492   1.360   .     S
N2491  Fe2500  2.091   .     S
N2492  Fe2498  2.139   .     S
Fe2497 N2807   2.091   .     S
Fe2497 N2831   2.091   .     S
Fe2498 N2743   2.091   1_455 S
Fe2498 N2768   2.139   1_455 S
Fe2500 N2767   2.091   1_455 S
Fe2500 N2744   2.139   1_455 S
C2501  C2503   1.360   .     S
C2501  N2507   1.360   .     D
C2501  H2509   0.950   .     S
C2502  C4103   1.360   .     S
C2502  N2508   1.360   .     D
C2502  H2510   0.950   .     S
C2503  C2504   1.500   .     D
C2504  C2506   1.390   .     S
C2505  C2506   1.390   .     D
C2505  H2511   0.950   .     S
C2506  H2512   0.950   .     S
N2508  N4107   1.360   .     S
N2508  Fe2599  2.139   .     S
C2513  C2515   1.360   .     S
C2513  N2519   1.360   .     D
C2513  H2521   0.950   .     S
C2514  C4115   1.360   .     S
C2514  N2520   1.360   .     D
C2514  H2522   0.950   .     S
C2515  C2516   1.500   .     D
C2516  C2518   1.390   .     S
C2517  C2518   1.390   .     D
C2517  H2523   0.950   .     S
C2518  H2524   0.950   .     S
N2519  Fe2598  2.091   .     S
N2520  N4119   1.360   .     S
N2520  Fe2600  2.139   .     S
C2525  C2527   1.360   .     S
C2525  N2531   1.360   .     D
C2525  H2533   0.950   .     S
C2526  C2527   1.360   .     S
C2526  N2532   1.360   .     D
C2526  H2534   0.950   .     S
C2527  C2528   1.500   .     D
C2528  C2530   1.390   .     S
C2528  C2589   1.390   .     S
C2529  C2530   1.390   .     D
C2529  H2535   0.950   .     S
C2529  C2588   1.390   .     S
C2530  H2536   0.950   .     S
N2531  N2532   1.360   .     S
N2532  Fe2599  2.139   .     S
C2537  C2539   1.360   .     S
C2537  N2543   1.360   .     D
C2537  H2545   0.950   .     S
C2538  C2539   1.360   .     S
C2538  N2544   1.360   .     D
C2538  H2546   0.950   .     S
C2539  C2540   1.500   .     D
C2540  C2542   1.390   .     S
C2540  C2577   1.390   .     S
C2541  C2542   1.390   .     D
C2541  H2547   0.950   .     S
C2541  C2576   1.390   .     S
C2542  H2548   0.950   .     S
N2543  N2544   1.360   .     S
N2543  Fe2698  2.091   .     S
N2544  Fe2700  2.139   .     S
C2549  C2551   1.360   .     S
C2549  N2555   1.360   .     D
C2549  H2557   0.950   .     S
C2550  N2556   1.360   .     D
C2550  H2558   0.950   .     S
C2551  C4150   1.360   .     S
C2551  C2552   1.500   .     D
C2552  C2554   1.390   .     S
C2552  C4117   1.390   .     S
C2553  C2554   1.390   .     D
C2553  H2559   0.950   .     S
C2553  C4116   1.390   .     S
C2554  H2560   0.950   .     S
N2555  N4156   1.360   .     S
N2555  Fe2999  2.091   .     S
N2556  Fe2597  2.139   .     S
C2561  C2563   1.360   .     S
C2561  N2567   1.360   .     D
C2561  H2569   0.950   .     S
C2562  N2568   1.360   .     D
C2562  H2570   0.950   .     S
C2563  C4162   1.360   .     S
C2563  C2564   1.500   .     D
C2564  C2566   1.390   .     S
C2564  C4105   1.390   .     S
C2565  C2566   1.390   .     D
C2565  H2571   0.950   .     S
C2565  C4104   1.390   .     S
C2566  H2572   0.950   .     S
N2567  N4168   1.360   .     S
N2567  Fe2700  2.091   .     S
N2568  Fe2698  2.139   .     S
C2573  C2575   1.360   .     S
C2573  N2579   1.360   .     D
C2573  H2581   0.950   .     S
C2574  C2575   1.360   .     S
C2574  N2580   1.360   .     D
C2574  H2582   0.950   .     S
C2575  C2576   1.500   .     D
C2576  C2578   1.390   .     S
C2577  C2578   1.390   .     D
C2577  H2583   0.950   .     S
C2578  H2584   0.950   .     S
N2579  N2580   1.360   .     S
N2579  Fe2999  2.091   .     S
N2580  Fe2597  2.139   .     S
C2585  C2587   1.360   .     S
C2585  N2591   1.360   .     D
C2585  H2593   0.950   .     S
C2586  C2587   1.360   .     S
C2586  N2592   1.360   .     D
C2586  H2594   0.950   .     S
C2587  C2588   1.500   .     D
C2588  C2590   1.390   .     S
C2589  C2590   1.390   .     D
C2589  H2595   0.950   .     S
C2590  H2596   0.950   .     S
N2591  N2592   1.360   .     S
N2591  Fe2600  2.091   .     S
N2592  Fe2598  2.139   .     S
Fe2597 N2907   2.091   .     S
Fe2597 N2931   2.091   .     S
C2601  C2603   1.360   .     S
C2601  N2607   1.360   .     D
C2601  H2609   0.950   .     S
C2602  C4203   1.360   .     S
C2602  N2608   1.360   .     D
C2602  H2610   0.950   .     S
C2603  C2604   1.500   .     D
C2604  C2606   1.390   .     S
C2605  C2606   1.390   .     D
C2605  H2611   0.950   .     S
C2606  H2612   0.950   .     S
N2608  N4207   1.360   .     S
N2608  Fe2699  2.139   .     S
C2613  C2615   1.360   .     S
C2613  N2619   1.360   .     D
C2613  H2621   0.950   .     S
C2614  C4215   1.360   .     S
C2614  N2620   1.360   .     D
C2614  H2622   0.950   .     S
C2615  C2616   1.500   .     D
C2616  C2618   1.390   .     S
C2617  C2618   1.390   .     D
C2617  H2623   0.950   .     S
C2618  H2624   0.950   .     S
N2619  Fe2698  2.091   .     S
N2620  N4219   1.360   .     S
N2620  Fe2700  2.139   .     S
C2625  C2627   1.360   .     S
C2625  N2631   1.360   .     D
C2625  H2633   0.950   .     S
C2626  C2627   1.360   .     S
C2626  N2632   1.360   .     D
C2626  H2634   0.950   .     S
C2627  C2628   1.500   .     D
C2628  C2630   1.390   .     S
C2628  C2689   1.390   .     S
C2629  C2630   1.390   .     D
C2629  H2635   0.950   .     S
C2629  C2688   1.390   .     S
C2630  H2636   0.950   .     S
N2631  N2632   1.360   .     S
N2632  Fe2699  2.139   .     S
C2637  C2639   1.360   .     S
C2637  N2643   1.360   .     D
C2637  H2645   0.950   .     S
C2638  C2639   1.360   .     S
C2638  N2644   1.360   .     D
C2638  H2646   0.950   .     S
C2639  C2640   1.500   .     D
C2640  C2642   1.390   .     S
C2640  C2677   1.390   .     S
C2641  C2642   1.390   .     D
C2641  H2647   0.950   .     S
C2641  C2676   1.390   .     S
C2642  H2648   0.950   .     S
N2643  N2644   1.360   .     S
N2643  Fe2798  2.091   .     S
N2644  Fe2800  2.139   .     S
C2649  C2651   1.360   .     S
C2649  N2655   1.360   .     D
C2649  H2657   0.950   .     S
C2650  N2656   1.360   .     D
C2650  H2658   0.950   .     S
C2651  C4250   1.360   .     S
C2651  C2652   1.500   .     D
C2652  C2654   1.390   .     S
C2652  C4217   1.390   .     S
C2653  C2654   1.390   .     D
C2653  H2659   0.950   .     S
C2653  C4216   1.390   .     S
C2654  H2660   0.950   .     S
N2655  N4256   1.360   .     S
N2655  Fe3099  2.091   .     S
N2656  Fe2697  2.139   .     S
C2661  C2663   1.360   .     S
C2661  N2667   1.360   .     D
C2661  H2669   0.950   .     S
C2662  N2668   1.360   .     D
C2662  H2670   0.950   .     S
C2663  C4262   1.360   .     S
C2663  C2664   1.500   .     D
C2664  C2666   1.390   .     S
C2664  C4205   1.390   .     S
C2665  C2666   1.390   .     D
C2665  H2671   0.950   .     S
C2665  C4204   1.390   .     S
C2666  H2672   0.950   .     S
N2667  N4268   1.360   .     S
N2667  Fe2800  2.091   .     S
N2668  Fe2798  2.139   .     S
C2673  C2675   1.360   .     S
C2673  N2679   1.360   .     D
C2673  H2681   0.950   .     S
C2674  C2675   1.360   .     S
C2674  N2680   1.360   .     D
C2674  H2682   0.950   .     S
C2675  C2676   1.500   .     D
C2676  C2678   1.390   .     S
C2677  C2678   1.390   .     D
C2677  H2683   0.950   .     S
C2678  H2684   0.950   .     S
N2679  N2680   1.360   .     S
N2679  Fe3099  2.091   .     S
N2680  Fe2697  2.139   .     S
C2685  C2687   1.360   .     S
C2685  N2691   1.360   .     D
C2685  H2693   0.950   .     S
C2686  C2687   1.360   .     S
C2686  N2692   1.360   .     D
C2686  H2694   0.950   .     S
C2687  C2688   1.500   .     D
C2688  C2690   1.390   .     S
C2689  C2690   1.390   .     D
C2689  H2695   0.950   .     S
C2690  H2696   0.950   .     S
N2691  N2692   1.360   .     S
N2691  Fe2700  2.091   .     S
N2692  Fe2698  2.139   .     S
Fe2697 N3007   2.091   .     S
Fe2697 N3031   2.091   .     S
C2701  C2703   1.360   .     S
C2701  N2707   1.360   .     D
C2701  H2709   0.950   .     S
C2702  C4303   1.360   .     S
C2702  N2708   1.360   .     D
C2702  H2710   0.950   .     S
C2703  C2704   1.500   .     D
C2704  C2706   1.390   .     S
C2705  C2706   1.390   .     D
C2705  H2711   0.950   .     S
C2706  H2712   0.950   .     S
N2708  N4307   1.360   .     S
N2708  Fe2799  2.139   .     S
C2713  C2715   1.360   .     S
C2713  N2719   1.360   .     D
C2713  H2721   0.950   .     S
C2714  C4315   1.360   .     S
C2714  N2720   1.360   .     D
C2714  H2722   0.950   .     S
C2715  C2716   1.500   .     D
C2716  C2718   1.390   .     S
C2717  C2718   1.390   .     D
C2717  H2723   0.950   .     S
C2718  H2724   0.950   .     S
N2719  Fe2798  2.091   .     S
N2720  N4319   1.360   .     S
N2720  Fe2800  2.139   .     S
C2725  C2727   1.360   .     S
C2725  N2731   1.360   .     D
C2725  H2733   0.950   .     S
C2726  C2727   1.360   .     S
C2726  N2732   1.360   .     D
C2726  H2734   0.950   .     S
C2727  C2728   1.500   .     D
C2728  C2730   1.390   .     S
C2728  C2789   1.390   .     S
C2729  C2730   1.390   .     D
C2729  H2735   0.950   .     S
C2729  C2788   1.390   .     S
C2730  H2736   0.950   .     S
N2731  N2732   1.360   .     S
N2732  Fe2799  2.139   .     S
C2737  C2739   1.360   .     S
C2737  N2743   1.360   .     D
C2737  H2745   0.950   .     S
C2738  C2739   1.360   .     S
C2738  N2744   1.360   .     D
C2738  H2746   0.950   .     S
C2739  C2740   1.500   .     D
C2740  C2742   1.390   .     S
C2740  C2777   1.390   .     S
C2741  C2742   1.390   .     D
C2741  H2747   0.950   .     S
C2741  C2776   1.390   .     S
C2742  H2748   0.950   .     S
N2743  N2744   1.360   .     S
N2743  Fe2498  2.091   1_655 S
N2744  Fe2500  2.139   1_655 S
C2749  C2751   1.360   .     S
C2749  N2755   1.360   .     D
C2749  H2757   0.950   .     S
C2750  N2756   1.360   .     D
C2750  H2758   0.950   .     S
C2751  C4350   1.360   .     S
C2751  C2752   1.500   .     D
C2752  C2754   1.390   .     S
C2752  C4317   1.390   .     S
C2753  C2754   1.390   .     D
C2753  H2759   0.950   .     S
C2753  C4316   1.390   .     S
C2754  H2760   0.950   .     S
N2755  N4356   1.360   .     S
N2755  Fe3199  2.091   .     S
N2756  Fe2797  2.139   .     S
C2761  C2763   1.360   .     S
C2761  N2767   1.360   .     D
C2761  H2769   0.950   .     S
C2762  N2768   1.360   .     D
C2762  H2770   0.950   .     S
C2763  C4362   1.360   .     S
C2763  C2764   1.500   .     D
C2764  C2766   1.390   .     S
C2764  C4305   1.390   .     S
C2765  C2766   1.390   .     D
C2765  H2771   0.950   .     S
C2765  C4304   1.390   .     S
C2766  H2772   0.950   .     S
N2767  N4368   1.360   .     S
N2767  Fe2500  2.091   1_655 S
N2768  Fe2498  2.139   1_655 S
C2773  C2775   1.360   .     S
C2773  N2779   1.360   .     D
C2773  H2781   0.950   .     S
C2774  C2775   1.360   .     S
C2774  N2780   1.360   .     D
C2774  H2782   0.950   .     S
C2775  C2776   1.500   .     D
C2776  C2778   1.390   .     S
C2777  C2778   1.390   .     D
C2777  H2783   0.950   .     S
C2778  H2784   0.950   .     S
N2779  N2780   1.360   .     S
N2779  Fe3199  2.091   .     S
N2780  Fe2797  2.139   .     S
C2785  C2787   1.360   .     S
C2785  N2791   1.360   .     D
C2785  H2793   0.950   .     S
C2786  C2787   1.360   .     S
C2786  N2792   1.360   .     D
C2786  H2794   0.950   .     S
C2787  C2788   1.500   .     D
C2788  C2790   1.390   .     S
C2789  C2790   1.390   .     D
C2789  H2795   0.950   .     S
C2790  H2796   0.950   .     S
N2791  N2792   1.360   .     S
N2791  Fe2800  2.091   .     S
N2792  Fe2798  2.139   .     S
Fe2797 N3107   2.091   .     S
Fe2797 N3131   2.091   .     S
C2801  C2803   1.360   .     S
C2801  N2807   1.360   .     D
C2801  H2809   0.950   .     S
C2802  C4403   1.360   .     S
C2802  N2808   1.360   .     D
C2802  H2810   0.950   .     S
C2803  C2804   1.500   .     D
C2804  C2806   1.390   .     S
C2805  C2806   1.390   .     D
C2805  H2811   0.950   .     S
C2806  H2812   0.950   .     S
N2808  N4407   1.360   .     S
N2808  Fe2899  2.139   .     S
C2813  C2815   1.360   .     S
C2813  N2819   1.360   .     D
C2813  H2821   0.950   .     S
C2814  C4415   1.360   .     S
C2814  N2820   1.360   .     D
C2814  H2822   0.950   .     S
C2815  C2816   1.500   .     D
C2816  C2818   1.390   .     S
C2817  C2818   1.390   .     D
C2817  H2823   0.950   .     S
C2818  H2824   0.950   .     S
N2819  Fe2898  2.091   .     S
N2820  N4419   1.360   .     S
N2820  Fe2900  2.139   .     S
C2825  C2827   1.360   .     S
C2825  N2831   1.360   .     D
C2825  H2833   0.950   .     S
C2826  C2827   1.360   .     S
C2826  N2832   1.360   .     D
C2826  H2834   0.950   .     S
C2827  C2828   1.500   .     D
C2828  C2830   1.390   .     S
C2828  C2889   1.390   .     S
C2829  C2830   1.390   .     D
C2829  H2835   0.950   .     S
C2829  C2888   1.390   .     S
C2830  H2836   0.950   .     S
N2831  N2832   1.360   .     S
N2832  Fe2899  2.139   .     S
C2837  C2839   1.360   .     S
C2837  N2843   1.360   .     D
C2837  H2845   0.950   .     S
C2838  C2839   1.360   .     S
C2838  N2844   1.360   .     D
C2838  H2846   0.950   .     S
C2839  C2840   1.500   .     D
C2840  C2842   1.390   .     S
C2840  C2877   1.390   .     S
C2841  C2842   1.390   .     D
C2841  H2847   0.950   .     S
C2841  C2876   1.390   .     S
C2842  H2848   0.950   .     S
N2843  N2844   1.360   .     S
N2843  Fe2998  2.091   .     S
N2844  Fe3000  2.139   .     S
C2849  C2851   1.360   .     S
C2849  N2855   1.360   .     D
C2849  H2857   0.950   .     S
C2850  N2856   1.360   .     D
C2850  H2858   0.950   .     S
C2851  C4450   1.360   .     S
C2851  C2852   1.500   .     D
C2852  C2854   1.390   .     S
C2852  C4417   1.390   .     S
C2853  C2854   1.390   .     D
C2853  H2859   0.950   .     S
C2853  C4416   1.390   .     S
C2854  H2860   0.950   .     S
N2855  N4456   1.360   .     S
N2855  Fe1699  2.091   1_565 S
N2856  Fe2897  2.139   .     S
C2861  C2863   1.360   .     S
C2861  N2867   1.360   .     D
C2861  H2869   0.950   .     S
C2862  N2868   1.360   .     D
C2862  H2870   0.950   .     S
C2863  C4462   1.360   .     S
C2863  C2864   1.500   .     D
C2864  C2866   1.390   .     S
C2864  C4405   1.390   .     S
C2865  C2866   1.390   .     D
C2865  H2871   0.950   .     S
C2865  C4404   1.390   .     S
C2866  H2872   0.950   .     S
N2867  N4468   1.360   .     S
N2867  Fe3000  2.091   .     S
N2868  Fe2998  2.139   .     S
C2873  C2875   1.360   .     S
C2873  N2879   1.360   .     D
C2873  H2881   0.950   .     S
C2874  C2875   1.360   .     S
C2874  N2880   1.360   .     D
C2874  H2882   0.950   .     S
C2875  C2876   1.500   .     D
C2876  C2878   1.390   .     S
C2877  C2878   1.390   .     D
C2877  H2883   0.950   .     S
C2878  H2884   0.950   .     S
N2879  N2880   1.360   .     S
N2879  Fe1699  2.091   1_565 S
N2880  Fe2897  2.139   .     S
C2885  C2887   1.360   .     S
C2885  N2891   1.360   .     D
C2885  H2893   0.950   .     S
C2886  C2887   1.360   .     S
C2886  N2892   1.360   .     D
C2886  H2894   0.950   .     S
C2887  C2888   1.500   .     D
C2888  C2890   1.390   .     S
C2889  C2890   1.390   .     D
C2889  H2895   0.950   .     S
C2890  H2896   0.950   .     S
N2891  N2892   1.360   .     S
N2891  Fe2900  2.091   .     S
N2892  Fe2898  2.139   .     S
Fe2897 N1607   2.091   1_565 S
Fe2897 N1631   2.091   1_565 S
Fe2898 N3143   2.091   1_455 S
Fe2898 N3168   2.139   1_455 S
Fe2900 N3167   2.091   1_455 S
Fe2900 N3144   2.139   1_455 S
C2901  C2903   1.360   .     S
C2901  N2907   1.360   .     D
C2901  H2909   0.950   .     S
C2902  C4503   1.360   .     S
C2902  N2908   1.360   .     D
C2902  H2910   0.950   .     S
C2903  C2904   1.500   .     D
C2904  C2906   1.390   .     S
C2905  C2906   1.390   .     D
C2905  H2911   0.950   .     S
C2906  H2912   0.950   .     S
N2908  N4507   1.360   .     S
N2908  Fe2999  2.139   .     S
C2913  C2915   1.360   .     S
C2913  N2919   1.360   .     D
C2913  H2921   0.950   .     S
C2914  C4515   1.360   .     S
C2914  N2920   1.360   .     D
C2914  H2922   0.950   .     S
C2915  C2916   1.500   .     D
C2916  C2918   1.390   .     S
C2917  C2918   1.390   .     D
C2917  H2923   0.950   .     S
C2918  H2924   0.950   .     S
N2919  Fe2998  2.091   .     S
N2920  N4519   1.360   .     S
N2920  Fe3000  2.139   .     S
C2925  C2927   1.360   .     S
C2925  N2931   1.360   .     D
C2925  H2933   0.950   .     S
C2926  C2927   1.360   .     S
C2926  N2932   1.360   .     D
C2926  H2934   0.950   .     S
C2927  C2928   1.500   .     D
C2928  C2930   1.390   .     S
C2928  C2989   1.390   .     S
C2929  C2930   1.390   .     D
C2929  H2935   0.950   .     S
C2929  C2988   1.390   .     S
C2930  H2936   0.950   .     S
N2931  N2932   1.360   .     S
N2932  Fe2999  2.139   .     S
C2937  C2939   1.360   .     S
C2937  N2943   1.360   .     D
C2937  H2945   0.950   .     S
C2938  C2939   1.360   .     S
C2938  N2944   1.360   .     D
C2938  H2946   0.950   .     S
C2939  C2940   1.500   .     D
C2940  C2942   1.390   .     S
C2940  C2977   1.390   .     S
C2941  C2942   1.390   .     D
C2941  H2947   0.950   .     S
C2941  C2976   1.390   .     S
C2942  H2948   0.950   .     S
N2943  N2944   1.360   .     S
N2943  Fe3098  2.091   .     S
N2944  Fe3100  2.139   .     S
C2949  C2951   1.360   .     S
C2949  N2955   1.360   .     D
C2949  H2957   0.950   .     S
C2950  N2956   1.360   .     D
C2950  H2958   0.950   .     S
C2951  C4550   1.360   .     S
C2951  C2952   1.500   .     D
C2952  C2954   1.390   .     S
C2952  C4517   1.390   .     S
C2953  C2954   1.390   .     D
C2953  H2959   0.950   .     S
C2953  C4516   1.390   .     S
C2954  H2960   0.950   .     S
N2955  N4556   1.360   .     S
N2955  Fe1799  2.091   1_565 S
N2956  Fe2997  2.139   .     S
C2961  C2963   1.360   .     S
C2961  N2967   1.360   .     D
C2961  H2969   0.950   .     S
C2962  N2968   1.360   .     D
C2962  H2970   0.950   .     S
C2963  C4562   1.360   .     S
C2963  C2964   1.500   .     D
C2964  C2966   1.390   .     S
C2964  C4505   1.390   .     S
C2965  C2966   1.390   .     D
C2965  H2971   0.950   .     S
C2965  C4504   1.390   .     S
C2966  H2972   0.950   .     S
N2967  N4568   1.360   .     S
N2967  Fe3100  2.091   .     S
N2968  Fe3098  2.139   .     S
C2973  C2975   1.360   .     S
C2973  N2979   1.360   .     D
C2973  H2981   0.950   .     S
C2974  C2975   1.360   .     S
C2974  N2980   1.360   .     D
C2974  H2982   0.950   .     S
C2975  C2976   1.500   .     D
C2976  C2978   1.390   .     S
C2977  C2978   1.390   .     D
C2977  H2983   0.950   .     S
C2978  H2984   0.950   .     S
N2979  N2980   1.360   .     S
N2979  Fe1799  2.091   1_565 S
N2980  Fe2997  2.139   .     S
C2985  C2987   1.360   .     S
C2985  N2991   1.360   .     D
C2985  H2993   0.950   .     S
C2986  C2987   1.360   .     S
C2986  N2992   1.360   .     D
C2986  H2994   0.950   .     S
C2987  C2988   1.500   .     D
C2988  C2990   1.390   .     S
C2989  C2990   1.390   .     D
C2989  H2995   0.950   .     S
C2990  H2996   0.950   .     S
N2991  N2992   1.360   .     S
N2991  Fe3000  2.091   .     S
N2992  Fe2998  2.139   .     S
Fe2997 N1707   2.091   1_565 S
Fe2997 N1731   2.091   1_565 S
C3001  C3003   1.360   .     S
C3001  N3007   1.360   .     D
C3001  H3009   0.950   .     S
C3002  C4603   1.360   .     S
C3002  N3008   1.360   .     D
C3002  H3010   0.950   .     S
C3003  C3004   1.500   .     D
C3004  C3006   1.390   .     S
C3005  C3006   1.390   .     D
C3005  H3011   0.950   .     S
C3006  H3012   0.950   .     S
N3008  N4607   1.360   .     S
N3008  Fe3099  2.139   .     S
C3013  C3015   1.360   .     S
C3013  N3019   1.360   .     D
C3013  H3021   0.950   .     S
C3014  C4615   1.360   .     S
C3014  N3020   1.360   .     D
C3014  H3022   0.950   .     S
C3015  C3016   1.500   .     D
C3016  C3018   1.390   .     S
C3017  C3018   1.390   .     D
C3017  H3023   0.950   .     S
C3018  H3024   0.950   .     S
N3019  Fe3098  2.091   .     S
N3020  N4619   1.360   .     S
N3020  Fe3100  2.139   .     S
C3025  C3027   1.360   .     S
C3025  N3031   1.360   .     D
C3025  H3033   0.950   .     S
C3026  C3027   1.360   .     S
C3026  N3032   1.360   .     D
C3026  H3034   0.950   .     S
C3027  C3028   1.500   .     D
C3028  C3030   1.390   .     S
C3028  C3089   1.390   .     S
C3029  C3030   1.390   .     D
C3029  H3035   0.950   .     S
C3029  C3088   1.390   .     S
C3030  H3036   0.950   .     S
N3031  N3032   1.360   .     S
N3032  Fe3099  2.139   .     S
C3037  C3039   1.360   .     S
C3037  N3043   1.360   .     D
C3037  H3045   0.950   .     S
C3038  C3039   1.360   .     S
C3038  N3044   1.360   .     D
C3038  H3046   0.950   .     S
C3039  C3040   1.500   .     D
C3040  C3042   1.390   .     S
C3040  C3077   1.390   .     S
C3041  C3042   1.390   .     D
C3041  H3047   0.950   .     S
C3041  C3076   1.390   .     S
C3042  H3048   0.950   .     S
N3043  N3044   1.360   .     S
N3043  Fe3198  2.091   .     S
N3044  Fe3200  2.139   .     S
C3049  C3051   1.360   .     S
C3049  N3055   1.360   .     D
C3049  H3057   0.950   .     S
C3050  N3056   1.360   .     D
C3050  H3058   0.950   .     S
C3051  C4650   1.360   .     S
C3051  C3052   1.500   .     D
C3052  C3054   1.390   .     S
C3052  C4617   1.390   .     S
C3053  C3054   1.390   .     D
C3053  H3059   0.950   .     S
C3053  C4616   1.390   .     S
C3054  H3060   0.950   .     S
N3055  N4656   1.360   .     S
N3055  Fe1899  2.091   1_565 S
N3056  Fe3097  2.139   .     S
C3061  C3063   1.360   .     S
C3061  N3067   1.360   .     D
C3061  H3069   0.950   .     S
C3062  N3068   1.360   .     D
C3062  H3070   0.950   .     S
C3063  C4662   1.360   .     S
C3063  C3064   1.500   .     D
C3064  C3066   1.390   .     S
C3064  C4605   1.390   .     S
C3065  C3066   1.390   .     D
C3065  H3071   0.950   .     S
C3065  C4604   1.390   .     S
C3066  H3072   0.950   .     S
N3067  N4668   1.360   .     S
N3067  Fe3200  2.091   .     S
N3068  Fe3198  2.139   .     S
C3073  C3075   1.360   .     S
C3073  N3079   1.360   .     D
C3073  H3081   0.950   .     S
C3074  C3075   1.360   .     S
C3074  N3080   1.360   .     D
C3074  H3082   0.950   .     S
C3075  C3076   1.500   .     D
C3076  C3078   1.390   .     S
C3077  C3078   1.390   .     D
C3077  H3083   0.950   .     S
C3078  H3084   0.950   .     S
N3079  N3080   1.360   .     S
N3079  Fe1899  2.091   1_565 S
N3080  Fe3097  2.139   .     S
C3085  C3087   1.360   .     S
C3085  N3091   1.360   .     D
C3085  H3093   0.950   .     S
C3086  C3087   1.360   .     S
C3086  N3092   1.360   .     D
C3086  H3094   0.950   .     S
C3087  C3088   1.500   .     D
C3088  C3090   1.390   .     S
C3089  C3090   1.390   .     D
C3089  H3095   0.950   .     S
C3090  H3096   0.950   .     S
N3091  N3092   1.360   .     S
N3091  Fe3100  2.091   .     S
N3092  Fe3098  2.139   .     S
Fe3097 N1807   2.091   1_565 S
Fe3097 N1831   2.091   1_565 S
C3101  C3103   1.360   .     S
C3101  N3107   1.360   .     D
C3101  H3109   0.950   .     S
C3102  C4703   1.360   .     S
C3102  N3108   1.360   .     D
C3102  H3110   0.950   .     S
C3103  C3104   1.500   .     D
C3104  C3106   1.390   .     S
C3105  C3106   1.390   .     D
C3105  H3111   0.950   .     S
C3106  H3112   0.950   .     S
N3108  N4707   1.360   .     S
N3108  Fe3199  2.139   .     S
C3113  C3115   1.360   .     S
C3113  N3119   1.360   .     D
C3113  H3121   0.950   .     S
C3114  C4715   1.360   .     S
C3114  N3120   1.360   .     D
C3114  H3122   0.950   .     S
C3115  C3116   1.500   .     D
C3116  C3118   1.390   .     S
C3117  C3118   1.390   .     D
C3117  H3123   0.950   .     S
C3118  H3124   0.950   .     S
N3119  Fe3198  2.091   .     S
N3120  N4719   1.360   .     S
N3120  Fe3200  2.139   .     S
C3125  C3127   1.360   .     S
C3125  N3131   1.360   .     D
C3125  H3133   0.950   .     S
C3126  C3127   1.360   .     S
C3126  N3132   1.360   .     D
C3126  H3134   0.950   .     S
C3127  C3128   1.500   .     D
C3128  C3130   1.390   .     S
C3128  C3189   1.390   .     S
C3129  C3130   1.390   .     D
C3129  H3135   0.950   .     S
C3129  C3188   1.390   .     S
C3130  H3136   0.950   .     S
N3131  N3132   1.360   .     S
N3132  Fe3199  2.139   .     S
C3137  C3139   1.360   .     S
C3137  N3143   1.360   .     D
C3137  H3145   0.950   .     S
C3138  C3139   1.360   .     S
C3138  N3144   1.360   .     D
C3138  H3146   0.950   .     S
C3139  C3140   1.500   .     D
C3140  C3142   1.390   .     S
C3140  C3177   1.390   .     S
C3141  C3142   1.390   .     D
C3141  H3147   0.950   .     S
C3141  C3176   1.390   .     S
C3142  H3148   0.950   .     S
N3143  N3144   1.360   .     S
N3143  Fe2898  2.091   1_655 S
N3144  Fe2900  2.139   1_655 S
C3149  C3151   1.360   .     S
C3149  N3155   1.360   .     D
C3149  H3157   0.950   .     S
C3150  N3156   1.360   .     D
C3150  H3158   0.950   .     S
C3151  C4750   1.360   .     S
C3151  C3152   1.500   .     D
C3152  C3154   1.390   .     S
C3152  C4717   1.390   .     S
C3153  C3154   1.390   .     D
C3153  H3159   0.950   .     S
C3153  C4716   1.390   .     S
C3154  H3160   0.950   .     S
N3155  N4756   1.360   .     S
N3155  Fe1999  2.091   1_565 S
N3156  Fe3197  2.139   .     S
C3161  C3163   1.360   .     S
C3161  N3167   1.360   .     D
C3161  H3169   0.950   .     S
C3162  N3168   1.360   .     D
C3162  H3170   0.950   .     S
C3163  C4762   1.360   .     S
C3163  C3164   1.500   .     D
C3164  C3166   1.390   .     S
C3164  C4705   1.390   .     S
C3165  C3166   1.390   .     D
C3165  H3171   0.950   .     S
C3165  C4704   1.390   .     S
C3166  H3172   0.950   .     S
N3167  N4768   1.360   .     S
N3167  Fe2900  2.091   1_655 S
N3168  Fe2898  2.139   1_655 S
C3173  C3175   1.360   .     S
C3173  N3179   1.360   .     D
C3173  H3181   0.950   .     S
C3174  C3175   1.360   .     S
C3174  N3180   1.360   .     D
C3174  H3182   0.950   .     S
C3175  C3176   1.500   .     D
C3176  C3178   1.390   .     S
C3177  C3178   1.390   .     D
C3177  H3183   0.950   .     S
C3178  H3184   0.950   .     S
N3179  N3180   1.360   .     S
N3179  Fe1999  2.091   1_565 S
N3180  Fe3197  2.139   .     S
C3185  C3187   1.360   .     S
C3185  N3191   1.360   .     D
C3185  H3193   0.950   .     S
C3186  C3187   1.360   .     S
C3186  N3192   1.360   .     D
C3186  H3194   0.950   .     S
C3187  C3188   1.500   .     D
C3188  C3190   1.390   .     S
C3189  C3190   1.390   .     D
C3189  H3195   0.950   .     S
C3190  H3196   0.950   .     S
N3191  N3192   1.360   .     S
N3191  Fe3200  2.091   .     S
N3192  Fe3198  2.139   .     S
Fe3197 N1907   2.091   1_565 S
Fe3197 N1931   2.091   1_565 S
C3201  C3203   1.360   .     S
C3201  N3207   1.360   .     D
C3201  H3209   0.950   .     S
C3202  C4803   1.360   .     S
C3202  N3208   1.360   .     D
C3202  H3210   0.950   .     S
C3203  C3204   1.500   .     D
C3204  C3206   1.390   .     S
C3205  C3206   1.390   .     D
C3205  H3211   0.950   .     S
C3206  H3212   0.950   .     S
N3207  Fe4497  2.091   1_545 S
N3208  N4807   1.360   .     S
N3208  Fe3299  2.139   .     S
C3213  C3215   1.360   .     S
C3213  N3219   1.360   .     D
C3213  H3221   0.950   .     S
C3214  C4815   1.360   .     S
C3214  N3220   1.360   .     D
C3214  H3222   0.950   .     S
C3215  C3216   1.500   .     D
C3216  C3218   1.390   .     S
C3217  C3218   1.390   .     D
C3217  H3223   0.950   .     S
C3218  H3224   0.950   .     S
N3219  Fe3298  2.091   .     S
N3220  N4819   1.360   .     S
N3220  Fe3300  2.139   .     S
C3225  C3227   1.360   .     S
C3225  N3231   1.360   .     D
C3225  H3233   0.950   .     S
C3226  C3227   1.360   .     S
C3226  N3232   1.360   .     D
C3226  H3234   0.950   .     S
C3227  C3228   1.500   .     D
C3228  C3230   1.390   .     S
C3228  C3289   1.390   .     S
C3229  C3230   1.390   .     D
C3229  H3235   0.950   .     S
C3229  C3288   1.390   .     S
C3230  H3236   0.950   .     S
N3231  N3232   1.360   .     S
N3231  Fe4497  2.091   1_545 S
N3232  Fe3299  2.139   .     S
C3237  C3239   1.360   .     S
C3237  N3243   1.360   .     D
C3237  H3245   0.950   .     S
C3238  C3239   1.360   .     S
C3238  N3244   1.360   .     D
C3238  H3246   0.950   .     S
C3239  C3240   1.500   .     D
C3240  C3242   1.390   .     S
C3240  C3277   1.390   .     S
C3241  C3242   1.390   .     D
C3241  H3247   0.950   .     S
C3241  C3276   1.390   .     S
C3242  H3248   0.950   .     S
N3243  N3244   1.360   .     S
N3243  Fe3398  2.091   .     S
N3244  Fe3400  2.139   .     S
C3249  C3251   1.360   .     S
C3249  N3255   1.360   .     D
C3249  H3257   0.950   .     S
C3250  N3256   1.360   .     D
C3250  H3258   0.950   .     S
C3251  C4850   1.360   .     S
C3251  C3252   1.500   .     D
C3252  C3254   1.390   .     S
C3252  C4817   1.390   .     S
C3253  C3254   1.390   .     D
C3253  H3259   0.950   .     S
C3253  C4816   1.390   .     S
C3254  H3260   0.950   .     S
N3255  N4856   1.360   .     S
N3255  Fe3699  2.091   .     S
N3256  Fe3297  2.139   .     S
C3261  C3263   1.360   .     S
C3261  N3267   1.360   .     D
C3261  H3269   0.950   .     S
C3262  N3268   1.360   .     D
C3262  H3270   0.950   .     S
C3263  C4862   1.360   .     S
C3263  C3264   1.500   .     D
C3264  C3266   1.390   .     S
C3264  C4805   1.390   .     S
C3265  C3266   1.390   .     D
C3265  H3271   0.950   .     S
C3265  C4804   1.390   .     S
C3266  H3272   0.950   .     S
N3267  N4868   1.360   .     S
N3267  Fe3400  2.091   .     S
N3268  Fe3398  2.139   .     S
C3273  C3275   1.360   .     S
C3273  N3279   1.360   .     D
C3273  H3281   0.950   .     S
C3274  C3275   1.360   .     S
C3274  N3280   1.360   .     D
C3274  H3282   0.950   .     S
C3275  C3276   1.500   .     D
C3276  C3278   1.390   .     S
C3277  C3278   1.390   .     D
C3277  H3283   0.950   .     S
C3278  H3284   0.950   .     S
N3279  N3280   1.360   .     S
N3279  Fe3699  2.091   .     S
N3280  Fe3297  2.139   .     S
C3285  C3287   1.360   .     S
C3285  N3291   1.360   .     D
C3285  H3293   0.950   .     S
C3286  C3287   1.360   .     S
C3286  N3292   1.360   .     D
C3286  H3294   0.950   .     S
C3287  C3288   1.500   .     D
C3288  C3290   1.390   .     S
C3289  C3290   1.390   .     D
C3289  H3295   0.950   .     S
C3290  H3296   0.950   .     S
N3291  N3292   1.360   .     S
N3291  Fe3300  2.091   .     S
N3292  Fe3298  2.139   .     S
Fe3297 N3607   2.091   .     S
Fe3297 N3631   2.091   .     S
Fe3298 N3543   2.091   1_455 S
Fe3298 N3568   2.139   1_455 S
Fe3299 N4455   2.091   1_545 S
Fe3299 N4479   2.091   1_545 S
Fe3300 N3567   2.091   1_455 S
Fe3300 N3544   2.139   1_455 S
C3301  C3303   1.360   .     S
C3301  N3307   1.360   .     D
C3301  H3309   0.950   .     S
C3302  C4903   1.360   .     S
C3302  N3308   1.360   .     D
C3302  H3310   0.950   .     S
C3303  C3304   1.500   .     D
C3304  C3306   1.390   .     S
C3305  C3306   1.390   .     D
C3305  H3311   0.950   .     S
C3306  H3312   0.950   .     S
N3307  Fe4597  2.091   1_545 S
N3308  N4907   1.360   .     S
N3308  Fe3399  2.139   .     S
C3313  C3315   1.360   .     S
C3313  N3319   1.360   .     D
C3313  H3321   0.950   .     S
C3314  C4915   1.360   .     S
C3314  N3320   1.360   .     D
C3314  H3322   0.950   .     S
C3315  C3316   1.500   .     D
C3316  C3318   1.390   .     S
C3317  C3318   1.390   .     D
C3317  H3323   0.950   .     S
C3318  H3324   0.950   .     S
N3319  Fe3398  2.091   .     S
N3320  N4919   1.360   .     S
N3320  Fe3400  2.139   .     S
C3325  C3327   1.360   .     S
C3325  N3331   1.360   .     D
C3325  H3333   0.950   .     S
C3326  C3327   1.360   .     S
C3326  N3332   1.360   .     D
C3326  H3334   0.950   .     S
C3327  C3328   1.500   .     D
C3328  C3330   1.390   .     S
C3328  C3389   1.390   .     S
C3329  C3330   1.390   .     D
C3329  H3335   0.950   .     S
C3329  C3388   1.390   .     S
C3330  H3336   0.950   .     S
N3331  N3332   1.360   .     S
N3331  Fe4597  2.091   1_545 S
N3332  Fe3399  2.139   .     S
C3337  C3339   1.360   .     S
C3337  N3343   1.360   .     D
C3337  H3345   0.950   .     S
C3338  C3339   1.360   .     S
C3338  N3344   1.360   .     D
C3338  H3346   0.950   .     S
C3339  C3340   1.500   .     D
C3340  C3342   1.390   .     S
C3340  C3377   1.390   .     S
C3341  C3342   1.390   .     D
C3341  H3347   0.950   .     S
C3341  C3376   1.390   .     S
C3342  H3348   0.950   .     S
N3343  N3344   1.360   .     S
N3343  Fe3498  2.091   .     S
N3344  Fe3500  2.139   .     S
C3349  C3351   1.360   .     S
C3349  N3355   1.360   .     D
C3349  H3357   0.950   .     S
C3350  N3356   1.360   .     D
C3350  H3358   0.950   .     S
C3351  C4950   1.360   .     S
C3351  C3352   1.500   .     D
C3352  C3354   1.390   .     S
C3352  C4917   1.390   .     S
C3353  C3354   1.390   .     D
C3353  H3359   0.950   .     S
C3353  C4916   1.390   .     S
C3354  H3360   0.950   .     S
N3355  N4956   1.360   .     S
N3355  Fe3799  2.091   .     S
N3356  Fe3397  2.139   .     S
C3361  C3363   1.360   .     S
C3361  N3367   1.360   .     D
C3361  H3369   0.950   .     S
C3362  N3368   1.360   .     D
C3362  H3370   0.950   .     S
C3363  C4962   1.360   .     S
C3363  C3364   1.500   .     D
C3364  C3366   1.390   .     S
C3364  C4905   1.390   .     S
C3365  C3366   1.390   .     D
C3365  H3371   0.950   .     S
C3365  C4904   1.390   .     S
C3366  H3372   0.950   .     S
N3367  N4968   1.360   .     S
N3367  Fe3500  2.091   .     S
N3368  Fe3498  2.139   .     S
C3373  C3375   1.360   .     S
C3373  N3379   1.360   .     D
C3373  H3381   0.950   .     S
C3374  C3375   1.360   .     S
C3374  N3380   1.360   .     D
C3374  H3382   0.950   .     S
C3375  C3376   1.500   .     D
C3376  C3378   1.390   .     S
C3377  C3378   1.390   .     D
C3377  H3383   0.950   .     S
C3378  H3384   0.950   .     S
N3379  N3380   1.360   .     S
N3379  Fe3799  2.091   .     S
N3380  Fe3397  2.139   .     S
C3385  C3387   1.360   .     S
C3385  N3391   1.360   .     D
C3385  H3393   0.950   .     S
C3386  C3387   1.360   .     S
C3386  N3392   1.360   .     D
C3386  H3394   0.950   .     S
C3387  C3388   1.500   .     D
C3388  C3390   1.390   .     S
C3389  C3390   1.390   .     D
C3389  H3395   0.950   .     S
C3390  H3396   0.950   .     S
N3391  N3392   1.360   .     S
N3391  Fe3400  2.091   .     S
N3392  Fe3398  2.139   .     S
Fe3397 N3707   2.091   .     S
Fe3397 N3731   2.091   .     S
Fe3399 N4555   2.091   1_545 S
Fe3399 N4579   2.091   1_545 S
C3401  C3403   1.360   .     S
C3401  N3407   1.360   .     D
C3401  H3409   0.950   .     S
C3402  C5003   1.360   .     S
C3402  N3408   1.360   .     D
C3402  H3410   0.950   .     S
C3403  C3404   1.500   .     D
C3404  C3406   1.390   .     S
C3405  C3406   1.390   .     D
C3405  H3411   0.950   .     S
C3406  H3412   0.950   .     S
N3407  Fe4697  2.091   1_545 S
N3408  N5007   1.360   .     S
N3408  Fe3499  2.139   .     S
C3413  C3415   1.360   .     S
C3413  N3419   1.360   .     D
C3413  H3421   0.950   .     S
C3414  C5015   1.360   .     S
C3414  N3420   1.360   .     D
C3414  H3422   0.950   .     S
C3415  C3416   1.500   .     D
C3416  C3418   1.390   .     S
C3417  C3418   1.390   .     D
C3417  H3423   0.950   .     S
C3418  H3424   0.950   .     S
N3419  Fe3498  2.091   .     S
N3420  N5019   1.360   .     S
N3420  Fe3500  2.139   .     S
C3425  C3427   1.360   .     S
C3425  N3431   1.360   .     D
C3425  H3433   0.950   .     S
C3426  C3427   1.360   .     S
C3426  N3432   1.360   .     D
C3426  H3434   0.950   .     S
C3427  C3428   1.500   .     D
C3428  C3430   1.390   .     S
C3428  C3489   1.390   .     S
C3429  C3430   1.390   .     D
C3429  H3435   0.950   .     S
C3429  C3488   1.390   .     S
C3430  H3436   0.950   .     S
N3431  N3432   1.360   .     S
N3431  Fe4697  2.091   1_545 S
N3432  Fe3499  2.139   .     S
C3437  C3439   1.360   .     S
C3437  N3443   1.360   .     D
C3437  H3445   0.950   .     S
C3438  C3439   1.360   .     S
C3438  N3444   1.360   .     D
C3438  H3446   0.950   .     S
C3439  C3440   1.500   .     D
C3440  C3442   1.390   .     S
C3440  C3477   1.390   .     S
C3441  C3442   1.390   .     D
C3441  H3447   0.950   .     S
C3441  C3476   1.390   .     S
C3442  H3448   0.950   .     S
N3443  N3444   1.360   .     S
N3443  Fe3598  2.091   .     S
N3444  Fe3600  2.139   .     S
C3449  C3451   1.360   .     S
C3449  N3455   1.360   .     D
C3449  H3457   0.950   .     S
C3450  N3456   1.360   .     D
C3450  H3458   0.950   .     S
C3451  C5050   1.360   .     S
C3451  C3452   1.500   .     D
C3452  C3454   1.390   .     S
C3452  C5017   1.390   .     S
C3453  C3454   1.390   .     D
C3453  H3459   0.950   .     S
C3453  C5016   1.390   .     S
C3454  H3460   0.950   .     S
N3455  N5056   1.360   .     S
N3455  Fe3899  2.091   .     S
N3456  Fe3497  2.139   .     S
C3461  C3463   1.360   .     S
C3461  N3467   1.360   .     D
C3461  H3469   0.950   .     S
C3462  N3468   1.360   .     D
C3462  H3470   0.950   .     S
C3463  C5062   1.360   .     S
C3463  C3464   1.500   .     D
C3464  C3466   1.390   .     S
C3464  C5005   1.390   .     S
C3465  C3466   1.390   .     D
C3465  H3471   0.950   .     S
C3465  C5004   1.390   .     S
C3466  H3472   0.950   .     S
N3467  N5068   1.360   .     S
N3467  Fe3600  2.091   .     S
N3468  Fe3598  2.139   .     S
C3473  C3475   1.360   .     S
C3473  N3479   1.360   .     D
C3473  H3481   0.950   .     S
C3474  C3475   1.360   .     S
C3474  N3480   1.360   .     D
C3474  H3482   0.950   .     S
C3475  C3476   1.500   .     D
C3476  C3478   1.390   .     S
C3477  C3478   1.390   .     D
C3477  H3483   0.950   .     S
C3478  H3484   0.950   .     S
N3479  N3480   1.360   .     S
N3479  Fe3899  2.091   .     S
N3480  Fe3497  2.139   .     S
C3485  C3487   1.360   .     S
C3485  N3491   1.360   .     D
C3485  H3493   0.950   .     S
C3486  C3487   1.360   .     S
C3486  N3492   1.360   .     D
C3486  H3494   0.950   .     S
C3487  C3488   1.500   .     D
C3488  C3490   1.390   .     S
C3489  C3490   1.390   .     D
C3489  H3495   0.950   .     S
C3490  H3496   0.950   .     S
N3491  N3492   1.360   .     S
N3491  Fe3500  2.091   .     S
N3492  Fe3498  2.139   .     S
Fe3497 N3807   2.091   .     S
Fe3497 N3831   2.091   .     S
Fe3499 N4655   2.091   1_545 S
Fe3499 N4679   2.091   1_545 S
C3501  C3503   1.360   .     S
C3501  N3507   1.360   .     D
C3501  H3509   0.950   .     S
C3502  C5103   1.360   .     S
C3502  N3508   1.360   .     D
C3502  H3510   0.950   .     S
C3503  C3504   1.500   .     D
C3504  C3506   1.390   .     S
C3505  C3506   1.390   .     D
C3505  H3511   0.950   .     S
C3506  H3512   0.950   .     S
N3507  Fe4797  2.091   1_545 S
N3508  N5107   1.360   .     S
N3508  Fe3599  2.139   .     S
C3513  C3515   1.360   .     S
C3513  N3519   1.360   .     D
C3513  H3521   0.950   .     S
C3514  C5115   1.360   .     S
C3514  N3520   1.360   .     D
C3514  H3522   0.950   .     S
C3515  C3516   1.500   .     D
C3516  C3518   1.390   .     S
C3517  C3518   1.390   .     D
C3517  H3523   0.950   .     S
C3518  H3524   0.950   .     S
N3519  Fe3598  2.091   .     S
N3520  N5119   1.360   .     S
N3520  Fe3600  2.139   .     S
C3525  C3527   1.360   .     S
C3525  N3531   1.360   .     D
C3525  H3533   0.950   .     S
C3526  C3527   1.360   .     S
C3526  N3532   1.360   .     D
C3526  H3534   0.950   .     S
C3527  C3528   1.500   .     D
C3528  C3530   1.390   .     S
C3528  C3589   1.390   .     S
C3529  C3530   1.390   .     D
C3529  H3535   0.950   .     S
C3529  C3588   1.390   .     S
C3530  H3536   0.950   .     S
N3531  N3532   1.360   .     S
N3531  Fe4797  2.091   1_545 S
N3532  Fe3599  2.139   .     S
C3537  C3539   1.360   .     S
C3537  N3543   1.360   .     D
C3537  H3545   0.950   .     S
C3538  C3539   1.360   .     S
C3538  N3544   1.360   .     D
C3538  H3546   0.950   .     S
C3539  C3540   1.500   .     D
C3540  C3542   1.390   .     S
C3540  C3577   1.390   .     S
C3541  C3542   1.390   .     D
C3541  H3547   0.950   .     S
C3541  C3576   1.390   .     S
C3542  H3548   0.950   .     S
N3543  N3544   1.360   .     S
N3543  Fe3298  2.091   1_655 S
N3544  Fe3300  2.139   1_655 S
C3549  C3551   1.360   .     S
C3549  N3555   1.360   .     D
C3549  H3557   0.950   .     S
C3550  N3556   1.360   .     D
C3550  H3558   0.950   .     S
C3551  C5150   1.360   .     S
C3551  C3552   1.500   .     D
C3552  C3554   1.390   .     S
C3552  C5117   1.390   .     S
C3553  C3554   1.390   .     D
C3553  H3559   0.950   .     S
C3553  C5116   1.390   .     S
C3554  H3560   0.950   .     S
N3555  N5156   1.360   .     S
N3555  Fe3999  2.091   .     S
N3556  Fe3597  2.139   .     S
C3561  C3563   1.360   .     S
C3561  N3567   1.360   .     D
C3561  H3569   0.950   .     S
C3562  N3568   1.360   .     D
C3562  H3570   0.950   .     S
C3563  C5162   1.360   .     S
C3563  C3564   1.500   .     D
C3564  C3566   1.390   .     S
C3564  C5105   1.390   .     S
C3565  C3566   1.390   .     D
C3565  H3571   0.950   .     S
C3565  C5104   1.390   .     S
C3566  H3572   0.950   .     S
N3567  N5168   1.360   .     S
N3567  Fe3300  2.091   1_655 S
N3568  Fe3298  2.139   1_655 S
C3573  C3575   1.360   .     S
C3573  N3579   1.360   .     D
C3573  H3581   0.950   .     S
C3574  C3575   1.360   .     S
C3574  N3580   1.360   .     D
C3574  H3582   0.950   .     S
C3575  C3576   1.500   .     D
C3576  C3578   1.390   .     S
C3577  C3578   1.390   .     D
C3577  H3583   0.950   .     S
C3578  H3584   0.950   .     S
N3579  N3580   1.360   .     S
N3579  Fe3999  2.091   .     S
N3580  Fe3597  2.139   .     S
C3585  C3587   1.360   .     S
C3585  N3591   1.360   .     D
C3585  H3593   0.950   .     S
C3586  C3587   1.360   .     S
C3586  N3592   1.360   .     D
C3586  H3594   0.950   .     S
C3587  C3588   1.500   .     D
C3588  C3590   1.390   .     S
C3589  C3590   1.390   .     D
C3589  H3595   0.950   .     S
C3590  H3596   0.950   .     S
N3591  N3592   1.360   .     S
N3591  Fe3600  2.091   .     S
N3592  Fe3598  2.139   .     S
Fe3597 N3907   2.091   .     S
Fe3597 N3931   2.091   .     S
Fe3599 N4755   2.091   1_545 S
Fe3599 N4779   2.091   1_545 S
C3601  C3603   1.360   .     S
C3601  N3607   1.360   .     D
C3601  H3609   0.950   .     S
C3602  C5203   1.360   .     S
C3602  N3608   1.360   .     D
C3602  H3610   0.950   .     S
C3603  C3604   1.500   .     D
C3604  C3606   1.390   .     S
C3605  C3606   1.390   .     D
C3605  H3611   0.950   .     S
C3606  H3612   0.950   .     S
N3608  N5207   1.360   .     S
N3608  Fe3699  2.139   .     S
C3613  C3615   1.360   .     S
C3613  N3619   1.360   .     D
C3613  H3621   0.950   .     S
C3614  C5215   1.360   .     S
C3614  N3620   1.360   .     D
C3614  H3622   0.950   .     S
C3615  C3616   1.500   .     D
C3616  C3618   1.390   .     S
C3617  C3618   1.390   .     D
C3617  H3623   0.950   .     S
C3618  H3624   0.950   .     S
N3619  Fe3698  2.091   .     S
N3620  N5219   1.360   .     S
N3620  Fe3700  2.139   .     S
C3625  C3627   1.360   .     S
C3625  N3631   1.360   .     D
C3625  H3633   0.950   .     S
C3626  C3627   1.360   .     S
C3626  N3632   1.360   .     D
C3626  H3634   0.950   .     S
C3627  C3628   1.500   .     D
C3628  C3630   1.390   .     S
C3628  C3689   1.390   .     S
C3629  C3630   1.390   .     D
C3629  H3635   0.950   .     S
C3629  C3688   1.390   .     S
C3630  H3636   0.950   .     S
N3631  N3632   1.360   .     S
N3632  Fe3699  2.139   .     S
C3637  C3639   1.360   .     S
C3637  N3643   1.360   .     D
C3637  H3645   0.950   .     S
C3638  C3639   1.360   .     S
C3638  N3644   1.360   .     D
C3638  H3646   0.950   .     S
C3639  C3640   1.500   .     D
C3640  C3642   1.390   .     S
C3640  C3677   1.390   .     S
C3641  C3642   1.390   .     D
C3641  H3647   0.950   .     S
C3641  C3676   1.390   .     S
C3642  H3648   0.950   .     S
N3643  N3644   1.360   .     S
N3643  Fe3798  2.091   .     S
N3644  Fe3800  2.139   .     S
C3649  C3651   1.360   .     S
C3649  N3655   1.360   .     D
C3649  H3657   0.950   .     S
C3650  N3656   1.360   .     D
C3650  H3658   0.950   .     S
C3651  C5250   1.360   .     S
C3651  C3652   1.500   .     D
C3652  C3654   1.390   .     S
C3652  C5217   1.390   .     S
C3653  C3654   1.390   .     D
C3653  H3659   0.950   .     S
C3653  C5216   1.390   .     S
C3654  H3660   0.950   .     S
N3655  N5256   1.360   .     S
N3655  Fe4099  2.091   .     S
N3656  Fe3697  2.139   .     S
C3661  C3663   1.360   .     S
C3661  N3667   1.360   .     D
C3661  H3669   0.950   .     S
C3662  N3668   1.360   .     D
C3662  H3670   0.950   .     S
C3663  C5262   1.360   .     S
C3663  C3664   1.500   .     D
C3664  C3666   1.390   .     S
C3664  C5205   1.390   .     S
C3665  C3666   1.390   .     D
C3665  H3671   0.950   .     S
C3665  C5204   1.390   .     S
C3666  H3672   0.950   .     S
N3667  N5268   1.360   .     S
N3667  Fe3800  2.091   .     S
N3668  Fe3798  2.139   .     S
C3673  C3675   1.360   .     S
C3673  N3679   1.360   .     D
C3673  H3681   0.950   .     S
C3674  C3675   1.360   .     S
C3674  N3680   1.360   .     D
C3674  H3682   0.950   .     S
C3675  C3676   1.500   .     D
C3676  C3678   1.390   .     S
C3677  C3678   1.390   .     D
C3677  H3683   0.950   .     S
C3678  H3684   0.950   .     S
N3679  N3680   1.360   .     S
N3679  Fe4099  2.091   .     S
N3680  Fe3697  2.139   .     S
C3685  C3687   1.360   .     S
C3685  N3691   1.360   .     D
C3685  H3693   0.950   .     S
C3686  C3687   1.360   .     S
C3686  N3692   1.360   .     D
C3686  H3694   0.950   .     S
C3687  C3688   1.500   .     D
C3688  C3690   1.390   .     S
C3689  C3690   1.390   .     D
C3689  H3695   0.950   .     S
C3690  H3696   0.950   .     S
N3691  N3692   1.360   .     S
N3691  Fe3700  2.091   .     S
N3692  Fe3698  2.139   .     S
Fe3697 N4007   2.091   .     S
Fe3697 N4031   2.091   .     S
Fe3698 N3943   2.091   1_455 S
Fe3698 N3968   2.139   1_455 S
Fe3700 N3967   2.091   1_455 S
Fe3700 N3944   2.139   1_455 S
C3701  C3703   1.360   .     S
C3701  N3707   1.360   .     D
C3701  H3709   0.950   .     S
C3702  C5303   1.360   .     S
C3702  N3708   1.360   .     D
C3702  H3710   0.950   .     S
C3703  C3704   1.500   .     D
C3704  C3706   1.390   .     S
C3705  C3706   1.390   .     D
C3705  H3711   0.950   .     S
C3706  H3712   0.950   .     S
N3708  N5307   1.360   .     S
N3708  Fe3799  2.139   .     S
C3713  C3715   1.360   .     S
C3713  N3719   1.360   .     D
C3713  H3721   0.950   .     S
C3714  C5315   1.360   .     S
C3714  N3720   1.360   .     D
C3714  H3722   0.950   .     S
C3715  C3716   1.500   .     D
C3716  C3718   1.390   .     S
C3717  C3718   1.390   .     D
C3717  H3723   0.950   .     S
C3718  H3724   0.950   .     S
N3719  Fe3798  2.091   .     S
N3720  N5319   1.360   .     S
N3720  Fe3800  2.139   .     S
C3725  C3727   1.360   .     S
C3725  N3731   1.360   .     D
C3725  H3733   0.950   .     S
C3726  C3727   1.360   .     S
C3726  N3732   1.360   .     D
C3726  H3734   0.950   .     S
C3727  C3728   1.500   .     D
C3728  C3730   1.390   .     S
C3728  C3789   1.390   .     S
C3729  C3730   1.390   .     D
C3729  H3735   0.950   .     S
C3729  C3788   1.390   .     S
C3730  H3736   0.950   .     S
N3731  N3732   1.360   .     S
N3732  Fe3799  2.139   .     S
C3737  C3739   1.360   .     S
C3737  N3743   1.360   .     D
C3737  H3745   0.950   .     S
C3738  C3739   1.360   .     S
C3738  N3744   1.360   .     D
C3738  H3746   0.950   .     S
C3739  C3740   1.500   .     D
C3740  C3742   1.390   .     S
C3740  C3777   1.390   .     S
C3741  C3742   1.390   .     D
C3741  H3747   0.950   .     S
C3741  C3776   1.390   .     S
C3742  H3748   0.950   .     S
N3743  N3744   1.360   .     S
N3743  Fe3898  2.091   .     S
N3744  Fe3900  2.139   .     S
C3749  C3751   1.360   .     S
C3749  N3755   1.360   .     D
C3749  H3757   0.950   .     S
C3750  N3756   1.360   .     D
C3750  H3758   0.950   .     S
C3751  C5350   1.360   .     S
C3751  C3752   1.500   .     D
C3752  C3754   1.390   .     S
C3752  C5317   1.390   .     S
C3753  C3754   1.390   .     D
C3753  H3759   0.950   .     S
C3753  C5316   1.390   .     S
C3754  H3760   0.950   .     S
N3755  N5356   1.360   .     S
N3755  Fe4199  2.091   .     S
N3756  Fe3797  2.139   .     S
C3761  C3763   1.360   .     S
C3761  N3767   1.360   .     D
C3761  H3769   0.950   .     S
C3762  N3768   1.360   .     D
C3762  H3770   0.950   .     S
C3763  C5362   1.360   .     S
C3763  C3764   1.500   .     D
C3764  C3766   1.390   .     S
C3764  C5305   1.390   .     S
C3765  C3766   1.390   .     D
C3765  H3771   0.950   .     S
C3765  C5304   1.390   .     S
C3766  H3772   0.950   .     S
N3767  N5368   1.360   .     S
N3767  Fe3900  2.091   .     S
N3768  Fe3898  2.139   .     S
C3773  C3775   1.360   .     S
C3773  N3779   1.360   .     D
C3773  H3781   0.950   .     S
C3774  C3775   1.360   .     S
C3774  N3780   1.360   .     D
C3774  H3782   0.950   .     S
C3775  C3776   1.500   .     D
C3776  C3778   1.390   .     S
C3777  C3778   1.390   .     D
C3777  H3783   0.950   .     S
C3778  H3784   0.950   .     S
N3779  N3780   1.360   .     S
N3779  Fe4199  2.091   .     S
N3780  Fe3797  2.139   .     S
C3785  C3787   1.360   .     S
C3785  N3791   1.360   .     D
C3785  H3793   0.950   .     S
C3786  C3787   1.360   .     S
C3786  N3792   1.360   .     D
C3786  H3794   0.950   .     S
C3787  C3788   1.500   .     D
C3788  C3790   1.390   .     S
C3789  C3790   1.390   .     D
C3789  H3795   0.950   .     S
C3790  H3796   0.950   .     S
N3791  N3792   1.360   .     S
N3791  Fe3800  2.091   .     S
N3792  Fe3798  2.139   .     S
Fe3797 N4107   2.091   .     S
Fe3797 N4131   2.091   .     S
C3801  C3803   1.360   .     S
C3801  N3807   1.360   .     D
C3801  H3809   0.950   .     S
C3802  C5403   1.360   .     S
C3802  N3808   1.360   .     D
C3802  H3810   0.950   .     S
C3803  C3804   1.500   .     D
C3804  C3806   1.390   .     S
C3805  C3806   1.390   .     D
C3805  H3811   0.950   .     S
C3806  H3812   0.950   .     S
N3808  N5407   1.360   .     S
N3808  Fe3899  2.139   .     S
C3813  C3815   1.360   .     S
C3813  N3819   1.360   .     D
C3813  H3821   0.950   .     S
C3814  C5415   1.360   .     S
C3814  N3820   1.360   .     D
C3814  H3822   0.950   .     S
C3815  C3816   1.500   .     D
C3816  C3818   1.390   .     S
C3817  C3818   1.390   .     D
C3817  H3823   0.950   .     S
C3818  H3824   0.950   .     S
N3819  Fe3898  2.091   .     S
N3820  N5419   1.360   .     S
N3820  Fe3900  2.139   .     S
C3825  C3827   1.360   .     S
C3825  N3831   1.360   .     D
C3825  H3833   0.950   .     S
C3826  C3827   1.360   .     S
C3826  N3832   1.360   .     D
C3826  H3834   0.950   .     S
C3827  C3828   1.500   .     D
C3828  C3830   1.390   .     S
C3828  C3889   1.390   .     S
C3829  C3830   1.390   .     D
C3829  H3835   0.950   .     S
C3829  C3888   1.390   .     S
C3830  H3836   0.950   .     S
N3831  N3832   1.360   .     S
N3832  Fe3899  2.139   .     S
C3837  C3839   1.360   .     S
C3837  N3843   1.360   .     D
C3837  H3845   0.950   .     S
C3838  C3839   1.360   .     S
C3838  N3844   1.360   .     D
C3838  H3846   0.950   .     S
C3839  C3840   1.500   .     D
C3840  C3842   1.390   .     S
C3840  C3877   1.390   .     S
C3841  C3842   1.390   .     D
C3841  H3847   0.950   .     S
C3841  C3876   1.390   .     S
C3842  H3848   0.950   .     S
N3843  N3844   1.360   .     S
N3843  Fe3998  2.091   .     S
N3844  Fe4000  2.139   .     S
C3849  C3851   1.360   .     S
C3849  N3855   1.360   .     D
C3849  H3857   0.950   .     S
C3850  N3856   1.360   .     D
C3850  H3858   0.950   .     S
C3851  C5450   1.360   .     S
C3851  C3852   1.500   .     D
C3852  C3854   1.390   .     S
C3852  C5417   1.390   .     S
C3853  C3854   1.390   .     D
C3853  H3859   0.950   .     S
C3853  C5416   1.390   .     S
C3854  H3860   0.950   .     S
N3855  N5456   1.360   .     S
N3855  Fe4299  2.091   .     S
N3856  Fe3897  2.139   .     S
C3861  C3863   1.360   .     S
C3861  N3867   1.360   .     D
C3861  H3869   0.950   .     S
C3862  N3868   1.360   .     D
C3862  H3870   0.950   .     S
C3863  C5462   1.360   .     S
C3863  C3864   1.500   .     D
C3864  C3866   1.390   .     S
C3864  C5405   1.390   .     S
C3865  C3866   1.390   .     D
C3865  H3871   0.950   .     S
C3865  C5404   1.390   .     S
C3866  H3872   0.950   .     S
N3867  N5468   1.360   .     S
N3867  Fe4000  2.091   .     S
N3868  Fe3998  2.139   .     S
C3873  C3875   1.360   .     S
C3873  N3879   1.360   .     D
C3873  H3881   0.950   .     S
C3874  C3875   1.360   .     S
C3874  N3880   1.360   .     D
C3874  H3882   0.950   .     S
C3875  C3876   1.500   .     D
C3876  C3878   1.390   .     S
C3877  C3878   1.390   .     D
C3877  H3883   0.950   .     S
C3878  H3884   0.950   .     S
N3879  N3880   1.360   .     S
N3879  Fe4299  2.091   .     S
N3880  Fe3897  2.139   .     S
C3885  C3887   1.360   .     S
C3885  N3891   1.360   .     D
C3885  H3893   0.950   .     S
C3886  C3887   1.360   .     S
C3886  N3892   1.360   .     D
C3886  H3894   0.950   .     S
C3887  C3888   1.500   .     D
C3888  C3890   1.390   .     S
C3889  C3890   1.390   .     D
C3889  H3895   0.950   .     S
C3890  H3896   0.950   .     S
N3891  N3892   1.360   .     S
N3891  Fe3900  2.091   .     S
N3892  Fe3898  2.139   .     S
Fe3897 N4207   2.091   .     S
Fe3897 N4231   2.091   .     S
C3901  C3903   1.360   .     S
C3901  N3907   1.360   .     D
C3901  H3909   0.950   .     S
C3902  C5503   1.360   .     S
C3902  N3908   1.360   .     D
C3902  H3910   0.950   .     S
C3903  C3904   1.500   .     D
C3904  C3906   1.390   .     S
C3905  C3906   1.390   .     D
C3905  H3911   0.950   .     S
C3906  H3912   0.950   .     S
N3908  N5507   1.360   .     S
N3908  Fe3999  2.139   .     S
C3913  C3915   1.360   .     S
C3913  N3919   1.360   .     D
C3913  H3921   0.950   .     S
C3914  C5515   1.360   .     S
C3914  N3920   1.360   .     D
C3914  H3922   0.950   .     S
C3915  C3916   1.500   .     D
C3916  C3918   1.390   .     S
C3917  C3918   1.390   .     D
C3917  H3923   0.950   .     S
C3918  H3924   0.950   .     S
N3919  Fe3998  2.091   .     S
N3920  N5519   1.360   .     S
N3920  Fe4000  2.139   .     S
C3925  C3927   1.360   .     S
C3925  N3931   1.360   .     D
C3925  H3933   0.950   .     S
C3926  C3927   1.360   .     S
C3926  N3932   1.360   .     D
C3926  H3934   0.950   .     S
C3927  C3928   1.500   .     D
C3928  C3930   1.390   .     S
C3928  C3989   1.390   .     S
C3929  C3930   1.390   .     D
C3929  H3935   0.950   .     S
C3929  C3988   1.390   .     S
C3930  H3936   0.950   .     S
N3931  N3932   1.360   .     S
N3932  Fe3999  2.139   .     S
C3937  C3939   1.360   .     S
C3937  N3943   1.360   .     D
C3937  H3945   0.950   .     S
C3938  C3939   1.360   .     S
C3938  N3944   1.360   .     D
C3938  H3946   0.950   .     S
C3939  C3940   1.500   .     D
C3940  C3942   1.390   .     S
C3940  C3977   1.390   .     S
C3941  C3942   1.390   .     D
C3941  H3947   0.950   .     S
C3941  C3976   1.390   .     S
C3942  H3948   0.950   .     S
N3943  N3944   1.360   .     S
N3943  Fe3698  2.091   1_655 S
N3944  Fe3700  2.139   1_655 S
C3949  C3951   1.360   .     S
C3949  N3955   1.360   .     D
C3949  H3957   0.950   .     S
C3950  N3956   1.360   .     D
C3950  H3958   0.950   .     S
C3951  C5550   1.360   .     S
C3951  C3952   1.500   .     D
C3952  C3954   1.390   .     S
C3952  C5517   1.390   .     S
C3953  C3954   1.390   .     D
C3953  H3959   0.950   .     S
C3953  C5516   1.390   .     S
C3954  H3960   0.950   .     S
N3955  N5556   1.360   .     S
N3955  Fe4399  2.091   .     S
N3956  Fe3997  2.139   .     S
C3961  C3963   1.360   .     S
C3961  N3967   1.360   .     D
C3961  H3969   0.950   .     S
C3962  N3968   1.360   .     D
C3962  H3970   0.950   .     S
C3963  C5562   1.360   .     S
C3963  C3964   1.500   .     D
C3964  C3966   1.390   .     S
C3964  C5505   1.390   .     S
C3965  C3966   1.390   .     D
C3965  H3971   0.950   .     S
C3965  C5504   1.390   .     S
C3966  H3972   0.950   .     S
N3967  N5568   1.360   .     S
N3967  Fe3700  2.091   1_655 S
N3968  Fe3698  2.139   1_655 S
C3973  C3975   1.360   .     S
C3973  N3979   1.360   .     D
C3973  H3981   0.950   .     S
C3974  C3975   1.360   .     S
C3974  N3980   1.360   .     D
C3974  H3982   0.950   .     S
C3975  C3976   1.500   .     D
C3976  C3978   1.390   .     S
C3977  C3978   1.390   .     D
C3977  H3983   0.950   .     S
C3978  H3984   0.950   .     S
N3979  N3980   1.360   .     S
N3979  Fe4399  2.091   .     S
N3980  Fe3997  2.139   .     S
C3985  C3987   1.360   .     S
C3985  N3991   1.360   .     D
C3985  H3993   0.950   .     S
C3986  C3987   1.360   .     S
C3986  N3992   1.360   .     D
C3986  H3994   0.950   .     S
C3987  C3988   1.500   .     D
C3988  C3990   1.390   .     S
C3989  C3990   1.390   .     D
C3989  H3995   0.950   .     S
C3990  H3996   0.950   .     S
N3991  N3992   1.360   .     S
N3991  Fe4000  2.091   .     S
N3992  Fe3998  2.139   .     S
Fe3997 N4307   2.091   .     S
Fe3997 N4331   2.091   .     S
C4001  C4003   1.360   .     S
C4001  N4007   1.360   .     D
C4001  H4009   0.950   .     S
C4002  C5603   1.360   .     S
C4002  N4008   1.360   .     D
C4002  H4010   0.950   .     S
C4003  C4004   1.500   .     D
C4004  C4006   1.390   .     S
C4005  C4006   1.390   .     D
C4005  H4011   0.950   .     S
C4006  H4012   0.950   .     S
N4008  N5607   1.360   .     S
N4008  Fe4099  2.139   .     S
C4013  C4015   1.360   .     S
C4013  N4019   1.360   .     D
C4013  H4021   0.950   .     S
C4014  C5615   1.360   .     S
C4014  N4020   1.360   .     D
C4014  H4022   0.950   .     S
C4015  C4016   1.500   .     D
C4016  C4018   1.390   .     S
C4017  C4018   1.390   .     D
C4017  H4023   0.950   .     S
C4018  H4024   0.950   .     S
N4019  Fe4098  2.091   .     S
N4020  N5619   1.360   .     S
N4020  Fe4100  2.139   .     S
C4025  C4027   1.360   .     S
C4025  N4031   1.360   .     D
C4025  H4033   0.950   .     S
C4026  C4027   1.360   .     S
C4026  N4032   1.360   .     D
C4026  H4034   0.950   .     S
C4027  C4028   1.500   .     D
C4028  C4030   1.390   .     S
C4028  C4089   1.390   .     S
C4029  C4030   1.390   .     D
C4029  H4035   0.950   .     S
C4029  C4088   1.390   .     S
C4030  H4036   0.950   .     S
N4031  N4032   1.360   .     S
N4032  Fe4099  2.139   .     S
C4037  C4039   1.360   .     S
C4037  N4043   1.360   .     D
C4037  H4045   0.950   .     S
C4038  C4039   1.360   .     S
C4038  N4044   1.360   .     D
C4038  H4046   0.950   .     S
C4039  C4040   1.500   .     D
C4040  C4042   1.390   .     S
C4040  C4077   1.390   .     S
C4041  C4042   1.390   .     D
C4041  H4047   0.950   .     S
C4041  C4076   1.390   .     S
C4042  H4048   0.950   .     S
N4043  N4044   1.360   .     S
N4043  Fe4198  2.091   .     S
N4044  Fe4200  2.139   .     S
C4049  C4051   1.360   .     S
C4049  N4055   1.360   .     D
C4049  H4057   0.950   .     S
C4050  N4056   1.360   .     D
C4050  H4058   0.950   .     S
C4051  C5650   1.360   .     S
C4051  C4052   1.500   .     D
C4052  C4054   1.390   .     S
C4052  C5617   1.390   .     S
C4053  C4054   1.390   .     D
C4053  H4059   0.950   .     S
C4053  C5616   1.390   .     S
C4054  H4060   0.950   .     S
N4055  N5656   1.360   .     S
N4055  Fe4499  2.091   .     S
N4056  Fe4097  2.139   .     S
C4061  C4063   1.360   .     S
C4061  N4067   1.360   .     D
C4061  H4069   0.950   .     S
C4062  N4068   1.360   .     D
C4062  H4070   0.950   .     S
C4063  C5662   1.360   .     S
C4063  C4064   1.500   .     D
C4064  C4066   1.390   .     S
C4064  C5605   1.390   .     S
C4065  C4066   1.390   .     D
C4065  H4071   0.950   .     S
C4065  C5604   1.390   .     S
C4066  H4072   0.950   .     S
N4067  N5668   1.360   .     S
N4067  Fe4200  2.091   .     S
N4068  Fe4198  2.139   .     S
C4073  C4075   1.360   .     S
C4073  N4079   1.360   .     D
C4073  H4081   0.950   .     S
C4074  C4075   1.360   .     S
C4074  N4080   1.360   .     D
C4074  H4082   0.950   .     S
C4075  C4076   1.500   .     D
C4076  C4078   1.390   .     S
C4077  C4078   1.390   .     D
C4077  H4083   0.950   .     S
C4078  H4084   0.950   .     S
N4079  N4080   1.360   .     S
N4079  Fe4499  2.091   .     S
N4080  Fe4097  2.139   .     S
C4085  C4087   1.360   .     S
C4085  N4091   1.360   .     D
C4085  H4093   0.950   .     S
C4086  C4087   1.360   .     S
C4086  N4092   1.360   .     D
C4086  H4094   0.950   .     S
C4087  C4088   1.500   .     D
C4088  C4090   1.390   .     S
C4089  C4090   1.390   .     D
C4089  H4095   0.950   .     S
C4090  H4096   0.950   .     S
N4091  N4092   1.360   .     S
N4091  Fe4100  2.091   .     S
N4092  Fe4098  2.139   .     S
Fe4097 N4407   2.091   .     S
Fe4097 N4431   2.091   .     S
Fe4098 N4343   2.091   1_455 S
Fe4098 N4368   2.139   1_455 S
Fe4100 N4367   2.091   1_455 S
Fe4100 N4344   2.139   1_455 S
C4101  C4103   1.360   .     S
C4101  N4107   1.360   .     D
C4101  H4109   0.950   .     S
C4102  C5703   1.360   .     S
C4102  N4108   1.360   .     D
C4102  H4110   0.950   .     S
C4103  C4104   1.500   .     D
C4104  C4106   1.390   .     S
C4105  C4106   1.390   .     D
C4105  H4111   0.950   .     S
C4106  H4112   0.950   .     S
N4108  N5707   1.360   .     S
N4108  Fe4199  2.139   .     S
C4113  C4115   1.360   .     S
C4113  N4119   1.360   .     D
C4113  H4121   0.950   .     S
C4114  C5715   1.360   .     S
C4114  N4120   1.360   .     D
C4114  H4122   0.950   .     S
C4115  C4116   1.500   .     D
C4116  C4118   1.390   .     S
C4117  C4118   1.390   .     D
C4117  H4123   0.950   .     S
C4118  H4124   0.950   .     S
N4119  Fe4198  2.091   .     S
N4120  N5719   1.360   .     S
N4120  Fe4200  2.139   .     S
C4125  C4127   1.360   .     S
C4125  N4131   1.360   .     D
C4125  H4133   0.950   .     S
C4126  C4127   1.360   .     S
C4126  N4132   1.360   .     D
C4126  H4134   0.950   .     S
C4127  C4128   1.500   .     D
C4128  C4130   1.390   .     S
C4128  C4189   1.390   .     S
C4129  C4130   1.390   .     D
C4129  H4135   0.950   .     S
C4129  C4188   1.390   .     S
C4130  H4136   0.950   .     S
N4131  N4132   1.360   .     S
N4132  Fe4199  2.139   .     S
C4137  C4139   1.360   .     S
C4137  N4143   1.360   .     D
C4137  H4145   0.950   .     S
C4138  C4139   1.360   .     S
C4138  N4144   1.360   .     D
C4138  H4146   0.950   .     S
C4139  C4140   1.500   .     D
C4140  C4142   1.390   .     S
C4140  C4177   1.390   .     S
C4141  C4142   1.390   .     D
C4141  H4147   0.950   .     S
C4141  C4176   1.390   .     S
C4142  H4148   0.950   .     S
N4143  N4144   1.360   .     S
N4143  Fe4298  2.091   .     S
N4144  Fe4300  2.139   .     S
C4149  C4151   1.360   .     S
C4149  N4155   1.360   .     D
C4149  H4157   0.950   .     S
C4150  N4156   1.360   .     D
C4150  H4158   0.950   .     S
C4151  C5750   1.360   .     S
C4151  C4152   1.500   .     D
C4152  C4154   1.390   .     S
C4152  C5717   1.390   .     S
C4153  C4154   1.390   .     D
C4153  H4159   0.950   .     S
C4153  C5716   1.390   .     S
C4154  H4160   0.950   .     S
N4155  N5756   1.360   .     S
N4155  Fe4599  2.091   .     S
N4156  Fe4197  2.139   .     S
C4161  C4163   1.360   .     S
C4161  N4167   1.360   .     D
C4161  H4169   0.950   .     S
C4162  N4168   1.360   .     D
C4162  H4170   0.950   .     S
C4163  C5762   1.360   .     S
C4163  C4164   1.500   .     D
C4164  C4166   1.390   .     S
C4164  C5705   1.390   .     S
C4165  C4166   1.390   .     D
C4165  H4171   0.950   .     S
C4165  C5704   1.390   .     S
C4166  H4172   0.950   .     S
N4167  N5768   1.360   .     S
N4167  Fe4300  2.091   .     S
N4168  Fe4298  2.139   .     S
C4173  C4175   1.360   .     S
C4173  N4179   1.360   .     D
C4173  H4181   0.950   .     S
C4174  C4175   1.360   .     S
C4174  N4180   1.360   .     D
C4174  H4182   0.950   .     S
C4175  C4176   1.500   .     D
C4176  C4178   1.390   .     S
C4177  C4178   1.390   .     D
C4177  H4183   0.950   .     S
C4178  H4184   0.950   .     S
N4179  N4180   1.360   .     S
N4179  Fe4599  2.091   .     S
N4180  Fe4197  2.139   .     S
C4185  C4187   1.360   .     S
C4185  N4191   1.360   .     D
C4185  H4193   0.950   .     S
C4186  C4187   1.360   .     S
C4186  N4192   1.360   .     D
C4186  H4194   0.950   .     S
C4187  C4188   1.500   .     D
C4188  C4190   1.390   .     S
C4189  C4190   1.390   .     D
C4189  H4195   0.950   .     S
C4190  H4196   0.950   .     S
N4191  N4192   1.360   .     S
N4191  Fe4200  2.091   .     S
N4192  Fe4198  2.139   .     S
Fe4197 N4507   2.091   .     S
Fe4197 N4531   2.091   .     S
C4201  C4203   1.360   .     S
C4201  N4207   1.360   .     D
C4201  H4209   0.950   .     S
C4202  C5803   1.360   .     S
C4202  N4208   1.360   .     D
C4202  H4210   0.950   .     S
C4203  C4204   1.500   .     D
C4204  C4206   1.390   .     S
C4205  C4206   1.390   .     D
C4205  H4211   0.950   .     S
C4206  H4212   0.950   .     S
N4208  N5807   1.360   .     S
N4208  Fe4299  2.139   .     S
C4213  C4215   1.360   .     S
C4213  N4219   1.360   .     D
C4213  H4221   0.950   .     S
C4214  C5815   1.360   .     S
C4214  N4220   1.360   .     D
C4214  H4222   0.950   .     S
C4215  C4216   1.500   .     D
C4216  C4218   1.390   .     S
C4217  C4218   1.390   .     D
C4217  H4223   0.950   .     S
C4218  H4224   0.950   .     S
N4219  Fe4298  2.091   .     S
N4220  N5819   1.360   .     S
N4220  Fe4300  2.139   .     S
C4225  C4227   1.360   .     S
C4225  N4231   1.360   .     D
C4225  H4233   0.950   .     S
C4226  C4227   1.360   .     S
C4226  N4232   1.360   .     D
C4226  H4234   0.950   .     S
C4227  C4228   1.500   .     D
C4228  C4230   1.390   .     S
C4228  C4289   1.390   .     S
C4229  C4230   1.390   .     D
C4229  H4235   0.950   .     S
C4229  C4288   1.390   .     S
C4230  H4236   0.950   .     S
N4231  N4232   1.360   .     S
N4232  Fe4299  2.139   .     S
C4237  C4239   1.360   .     S
C4237  N4243   1.360   .     D
C4237  H4245   0.950   .     S
C4238  C4239   1.360   .     S
C4238  N4244   1.360   .     D
C4238  H4246   0.950   .     S
C4239  C4240   1.500   .     D
C4240  C4242   1.390   .     S
C4240  C4277   1.390   .     S
C4241  C4242   1.390   .     D
C4241  H4247   0.950   .     S
C4241  C4276   1.390   .     S
C4242  H4248   0.950   .     S
N4243  N4244   1.360   .     S
N4243  Fe4398  2.091   .     S
N4244  Fe4400  2.139   .     S
C4249  C4251   1.360   .     S
C4249  N4255   1.360   .     D
C4249  H4257   0.950   .     S
C4250  N4256   1.360   .     D
C4250  H4258   0.950   .     S
C4251  C5850   1.360   .     S
C4251  C4252   1.500   .     D
C4252  C4254   1.390   .     S
C4252  C5817   1.390   .     S
C4253  C4254   1.390   .     D
C4253  H4259   0.950   .     S
C4253  C5816   1.390   .     S
C4254  H4260   0.950   .     S
N4255  N5856   1.360   .     S
N4255  Fe4699  2.091   .     S
N4256  Fe4297  2.139   .     S
C4261  C4263   1.360   .     S
C4261  N4267   1.360   .     D
C4261  H4269   0.950   .     S
C4262  N4268   1.360   .     D
C4262  H4270   0.950   .     S
C4263  C5862   1.360   .     S
C4263  C4264   1.500   .     D
C4264  C4266   1.390   .     S
C4264  C5805   1.390   .     S
C4265  C4266   1.390   .     D
C4265  H4271   0.950   .     S
C4265  C5804   1.390   .     S
C4266  H4272   0.950   .     S
N4267  N5868   1.360   .     S
N4267  Fe4400  2.091   .     S
N4268  Fe4398  2.139   .     S
C4273  C4275   1.360   .     S
C4273  N4279   1.360   .     D
C4273  H4281   0.950   .     S
C4274  C4275   1.360   .     S
C4274  N4280   1.360   .     D
C4274  H4282   0.950   .     S
C4275  C4276   1.500   .     D
C4276  C4278   1.390   .     S
C4277  C4278   1.390   .     D
C4277  H4283   0.950   .     S
C4278  H4284   0.950   .     S
N4279  N4280   1.360   .     S
N4279  Fe4699  2.091   .     S
N4280  Fe4297  2.139   .     S
C4285  C4287   1.360   .     S
C4285  N4291   1.360   .     D
C4285  H4293   0.950   .     S
C4286  C4287   1.360   .     S
C4286  N4292   1.360   .     D
C4286  H4294   0.950   .     S
C4287  C4288   1.500   .     D
C4288  C4290   1.390   .     S
C4289  C4290   1.390   .     D
C4289  H4295   0.950   .     S
C4290  H4296   0.950   .     S
N4291  N4292   1.360   .     S
N4291  Fe4300  2.091   .     S
N4292  Fe4298  2.139   .     S
Fe4297 N4607   2.091   .     S
Fe4297 N4631   2.091   .     S
C4301  C4303   1.360   .     S
C4301  N4307   1.360   .     D
C4301  H4309   0.950   .     S
C4302  C5903   1.360   .     S
C4302  N4308   1.360   .     D
C4302  H4310   0.950   .     S
C4303  C4304   1.500   .     D
C4304  C4306   1.390   .     S
C4305  C4306   1.390   .     D
C4305  H4311   0.950   .     S
C4306  H4312   0.950   .     S
N4308  N5907   1.360   .     S
N4308  Fe4399  2.139   .     S
C4313  C4315   1.360   .     S
C4313  N4319   1.360   .     D
C4313  H4321   0.950   .     S
C4314  C5915   1.360   .     S
C4314  N4320   1.360   .     D
C4314  H4322   0.950   .     S
C4315  C4316   1.500   .     D
C4316  C4318   1.390   .     S
C4317  C4318   1.390   .     D
C4317  H4323   0.950   .     S
C4318  H4324   0.950   .     S
N4319  Fe4398  2.091   .     S
N4320  N5919   1.360   .     S
N4320  Fe4400  2.139   .     S
C4325  C4327   1.360   .     S
C4325  N4331   1.360   .     D
C4325  H4333   0.950   .     S
C4326  C4327   1.360   .     S
C4326  N4332   1.360   .     D
C4326  H4334   0.950   .     S
C4327  C4328   1.500   .     D
C4328  C4330   1.390   .     S
C4328  C4389   1.390   .     S
C4329  C4330   1.390   .     D
C4329  H4335   0.950   .     S
C4329  C4388   1.390   .     S
C4330  H4336   0.950   .     S
N4331  N4332   1.360   .     S
N4332  Fe4399  2.139   .     S
C4337  C4339   1.360   .     S
C4337  N4343   1.360   .     D
C4337  H4345   0.950   .     S
C4338  C4339   1.360   .     S
C4338  N4344   1.360   .     D
C4338  H4346   0.950   .     S
C4339  C4340   1.500   .     D
C4340  C4342   1.390   .     S
C4340  C4377   1.390   .     S
C4341  C4342   1.390   .     D
C4341  H4347   0.950   .     S
C4341  C4376   1.390   .     S
C4342  H4348   0.950   .     S
N4343  N4344   1.360   .     S
N4343  Fe4098  2.091   1_655 S
N4344  Fe4100  2.139   1_655 S
C4349  C4351   1.360   .     S
C4349  N4355   1.360   .     D
C4349  H4357   0.950   .     S
C4350  N4356   1.360   .     D
C4350  H4358   0.950   .     S
C4351  C5950   1.360   .     S
C4351  C4352   1.500   .     D
C4352  C4354   1.390   .     S
C4352  C5917   1.390   .     S
C4353  C4354   1.390   .     D
C4353  H4359   0.950   .     S
C4353  C5916   1.390   .     S
C4354  H4360   0.950   .     S
N4355  N5956   1.360   .     S
N4355  Fe4799  2.091   .     S
N4356  Fe4397  2.139   .     S
C4361  C4363   1.360   .     S
C4361  N4367   1.360   .     D
C4361  H4369   0.950   .     S
C4362  N4368   1.360   .     D
C4362  H4370   0.950   .     S
C4363  C5962   1.360   .     S
C4363  C4364   1.500   .     D
C4364  C4366   1.390   .     S
C4364  C5905   1.390   .     S
C4365  C4366   1.390   .     D
C4365  H4371   0.950   .     S
C4365  C5904   1.390   .     S
C4366  H4372   0.950   .     S
N4367  N5968   1.360   .     S
N4367  Fe4100  2.091   1_655 S
N4368  Fe4098  2.139   1_655 S
C4373  C4375   1.360   .     S
C4373  N4379   1.360   .     D
C4373  H4381   0.950   .     S
C4374  C4375   1.360   .     S
C4374  N4380   1.360   .     D
C4374  H4382   0.950   .     S
C4375  C4376   1.500   .     D
C4376  C4378   1.390   .     S
C4377  C4378   1.390   .     D
C4377  H4383   0.950   .     S
C4378  H4384   0.950   .     S
N4379  N4380   1.360   .     S
N4379  Fe4799  2.091   .     S
N4380  Fe4397  2.139   .     S
C4385  C4387   1.360   .     S
C4385  N4391   1.360   .     D
C4385  H4393   0.950   .     S
C4386  C4387   1.360   .     S
C4386  N4392   1.360   .     D
C4386  H4394   0.950   .     S
C4387  C4388   1.500   .     D
C4388  C4390   1.390   .     S
C4389  C4390   1.390   .     D
C4389  H4395   0.950   .     S
C4390  H4396   0.950   .     S
N4391  N4392   1.360   .     S
N4391  Fe4400  2.091   .     S
N4392  Fe4398  2.139   .     S
Fe4397 N4707   2.091   .     S
Fe4397 N4731   2.091   .     S
C4401  C4403   1.360   .     S
C4401  N4407   1.360   .     D
C4401  H4409   0.950   .     S
C4402  C6003   1.360   .     S
C4402  N4408   1.360   .     D
C4402  H4410   0.950   .     S
C4403  C4404   1.500   .     D
C4404  C4406   1.390   .     S
C4405  C4406   1.390   .     D
C4405  H4411   0.950   .     S
C4406  H4412   0.950   .     S
N4408  N6007   1.360   .     S
N4408  Fe4499  2.139   .     S
C4413  C4415   1.360   .     S
C4413  N4419   1.360   .     D
C4413  H4421   0.950   .     S
C4414  C6015   1.360   .     S
C4414  N4420   1.360   .     D
C4414  H4422   0.950   .     S
C4415  C4416   1.500   .     D
C4416  C4418   1.390   .     S
C4417  C4418   1.390   .     D
C4417  H4423   0.950   .     S
C4418  H4424   0.950   .     S
N4419  Fe4498  2.091   .     S
N4420  N6019   1.360   .     S
N4420  Fe4500  2.139   .     S
C4425  C4427   1.360   .     S
C4425  N4431   1.360   .     D
C4425  H4433   0.950   .     S
C4426  C4427   1.360   .     S
C4426  N4432   1.360   .     D
C4426  H4434   0.950   .     S
C4427  C4428   1.500   .     D
C4428  C4430   1.390   .     S
C4428  C4489   1.390   .     S
C4429  C4430   1.390   .     D
C4429  H4435   0.950   .     S
C4429  C4488   1.390   .     S
C4430  H4436   0.950   .     S
N4431  N4432   1.360   .     S
N4432  Fe4499  2.139   .     S
C4437  C4439   1.360   .     S
C4437  N4443   1.360   .     D
C4437  H4445   0.950   .     S
C4438  C4439   1.360   .     S
C4438  N4444   1.360   .     D
C4438  H4446   0.950   .     S
C4439  C4440   1.500   .     D
C4440  C4442   1.390   .     S
C4440  C4477   1.390   .     S
C4441  C4442   1.390   .     D
C4441  H4447   0.950   .     S
C4441  C4476   1.390   .     S
C4442  H4448   0.950   .     S
N4443  N4444   1.360   .     S
N4443  Fe4598  2.091   .     S
N4444  Fe4600  2.139   .     S
C4449  C4451   1.360   .     S
C4449  N4455   1.360   .     D
C4449  H4457   0.950   .     S
C4450  N4456   1.360   .     D
C4450  H4458   0.950   .     S
C4451  C6050   1.360   .     S
C4451  C4452   1.500   .     D
C4452  C4454   1.390   .     S
C4452  C6017   1.390   .     S
C4453  C4454   1.390   .     D
C4453  H4459   0.950   .     S
C4453  C6016   1.390   .     S
C4454  H4460   0.950   .     S
N4455  N6056   1.360   .     S
N4455  Fe3299  2.091   1_565 S
N4456  Fe4497  2.139   .     S
C4461  C4463   1.360   .     S
C4461  N4467   1.360   .     D
C4461  H4469   0.950   .     S
C4462  N4468   1.360   .     D
C4462  H4470   0.950   .     S
C4463  C6062   1.360   .     S
C4463  C4464   1.500   .     D
C4464  C4466   1.390   .     S
C4464  C6005   1.390   .     S
C4465  C4466   1.390   .     D
C4465  H4471   0.950   .     S
C4465  C6004   1.390   .     S
C4466  H4472   0.950   .     S
N4467  N6068   1.360   .     S
N4467  Fe4600  2.091   .     S
N4468  Fe4598  2.139   .     S
C4473  C4475   1.360   .     S
C4473  N4479   1.360   .     D
C4473  H4481   0.950   .     S
C4474  C4475   1.360   .     S
C4474  N4480   1.360   .     D
C4474  H4482   0.950   .     S
C4475  C4476   1.500   .     D
C4476  C4478   1.390   .     S
C4477  C4478   1.390   .     D
C4477  H4483   0.950   .     S
C4478  H4484   0.950   .     S
N4479  N4480   1.360   .     S
N4479  Fe3299  2.091   1_565 S
N4480  Fe4497  2.139   .     S
C4485  C4487   1.360   .     S
C4485  N4491   1.360   .     D
C4485  H4493   0.950   .     S
C4486  C4487   1.360   .     S
C4486  N4492   1.360   .     D
C4486  H4494   0.950   .     S
C4487  C4488   1.500   .     D
C4488  C4490   1.390   .     S
C4489  C4490   1.390   .     D
C4489  H4495   0.950   .     S
C4490  H4496   0.950   .     S
N4491  N4492   1.360   .     S
N4491  Fe4500  2.091   .     S
N4492  Fe4498  2.139   .     S
Fe4497 N3207   2.091   1_565 S
Fe4497 N3231   2.091   1_565 S
Fe4498 N4743   2.091   1_455 S
Fe4498 N4768   2.139   1_455 S
Fe4500 N4767   2.091   1_455 S
Fe4500 N4744   2.139   1_455 S
C4501  C4503   1.360   .     S
C4501  N4507   1.360   .     D
C4501  H4509   0.950   .     S
C4502  C6103   1.360   .     S
C4502  N4508   1.360   .     D
C4502  H4510   0.950   .     S
C4503  C4504   1.500   .     D
C4504  C4506   1.390   .     S
C4505  C4506   1.390   .     D
C4505  H4511   0.950   .     S
C4506  H4512   0.950   .     S
N4508  N6107   1.360   .     S
N4508  Fe4599  2.139   .     S
C4513  C4515   1.360   .     S
C4513  N4519   1.360   .     D
C4513  H4521   0.950   .     S
C4514  C6115   1.360   .     S
C4514  N4520   1.360   .     D
C4514  H4522   0.950   .     S
C4515  C4516   1.500   .     D
C4516  C4518   1.390   .     S
C4517  C4518   1.390   .     D
C4517  H4523   0.950   .     S
C4518  H4524   0.950   .     S
N4519  Fe4598  2.091   .     S
N4520  N6119   1.360   .     S
N4520  Fe4600  2.139   .     S
C4525  C4527   1.360   .     S
C4525  N4531   1.360   .     D
C4525  H4533   0.950   .     S
C4526  C4527   1.360   .     S
C4526  N4532   1.360   .     D
C4526  H4534   0.950   .     S
C4527  C4528   1.500   .     D
C4528  C4530   1.390   .     S
C4528  C4589   1.390   .     S
C4529  C4530   1.390   .     D
C4529  H4535   0.950   .     S
C4529  C4588   1.390   .     S
C4530  H4536   0.950   .     S
N4531  N4532   1.360   .     S
N4532  Fe4599  2.139   .     S
C4537  C4539   1.360   .     S
C4537  N4543   1.360   .     D
C4537  H4545   0.950   .     S
C4538  C4539   1.360   .     S
C4538  N4544   1.360   .     D
C4538  H4546   0.950   .     S
C4539  C4540   1.500   .     D
C4540  C4542   1.390   .     S
C4540  C4577   1.390   .     S
C4541  C4542   1.390   .     D
C4541  H4547   0.950   .     S
C4541  C4576   1.390   .     S
C4542  H4548   0.950   .     S
N4543  N4544   1.360   .     S
N4543  Fe4698  2.091   .     S
N4544  Fe4700  2.139   .     S
C4549  C4551   1.360   .     S
C4549  N4555   1.360   .     D
C4549  H4557   0.950   .     S
C4550  N4556   1.360   .     D
C4550  H4558   0.950   .     S
C4551  C6150   1.360   .     S
C4551  C4552   1.500   .     D
C4552  C4554   1.390   .     S
C4552  C6117   1.390   .     S
C4553  C4554   1.390   .     D
C4553  H4559   0.950   .     S
C4553  C6116   1.390   .     S
C4554  H4560   0.950   .     S
N4555  N6156   1.360   .     S
N4555  Fe3399  2.091   1_565 S
N4556  Fe4597  2.139   .     S
C4561  C4563   1.360   .     S
C4561  N4567   1.360   .     D
C4561  H4569   0.950   .     S
C4562  N4568   1.360   .     D
C4562  H4570   0.950   .     S
C4563  C6162   1.360   .     S
C4563  C4564   1.500   .     D
C4564  C4566   1.390   .     S
C4564  C6105   1.390   .     S
C4565  C4566   1.390   .     D
C4565  H4571   0.950   .     S
C4565  C6104   1.390   .     S
C4566  H4572   0.950   .     S
N4567  N6168   1.360   .     S
N4567  Fe4700  2.091   .     S
N4568  Fe4698  2.139   .     S
C4573  C4575   1.360   .     S
C4573  N4579   1.360   .     D
C4573  H4581   0.950   .     S
C4574  C4575   1.360   .     S
C4574  N4580   1.360   .     D
C4574  H4582   0.950   .     S
C4575  C4576   1.500   .     D
C4576  C4578   1.390   .     S
C4577  C4578   1.390   .     D
C4577  H4583   0.950   .     S
C4578  H4584   0.950   .     S
N4579  N4580   1.360   .     S
N4579  Fe3399  2.091   1_565 S
N4580  Fe4597  2.139   .     S
C4585  C4587   1.360   .     S
C4585  N4591   1.360   .     D
C4585  H4593   0.950   .     S
C4586  C4587   1.360   .     S
C4586  N4592   1.360   .     D
C4586  H4594   0.950   .     S
C4587  C4588   1.500   .     D
C4588  C4590   1.390   .     S
C4589  C4590   1.390   .     D
C4589  H4595   0.950   .     S
C4590  H4596   0.950   .     S
N4591  N4592   1.360   .     S
N4591  Fe4600  2.091   .     S
N4592  Fe4598  2.139   .     S
Fe4597 N3307   2.091   1_565 S
Fe4597 N3331   2.091   1_565 S
C4601  C4603   1.360   .     S
C4601  N4607   1.360   .     D
C4601  H4609   0.950   .     S
C4602  C6203   1.360   .     S
C4602  N4608   1.360   .     D
C4602  H4610   0.950   .     S
C4603  C4604   1.500   .     D
C4604  C4606   1.390   .     S
C4605  C4606   1.390   .     D
C4605  H4611   0.950   .     S
C4606  H4612   0.950   .     S
N4608  N6207   1.360   .     S
N4608  Fe4699  2.139   .     S
C4613  C4615   1.360   .     S
C4613  N4619   1.360   .     D
C4613  H4621   0.950   .     S
C4614  C6215   1.360   .     S
C4614  N4620   1.360   .     D
C4614  H4622   0.950   .     S
C4615  C4616   1.500   .     D
C4616  C4618   1.390   .     S
C4617  C4618   1.390   .     D
C4617  H4623   0.950   .     S
C4618  H4624   0.950   .     S
N4619  Fe4698  2.091   .     S
N4620  N6219   1.360   .     S
N4620  Fe4700  2.139   .     S
C4625  C4627   1.360   .     S
C4625  N4631   1.360   .     D
C4625  H4633   0.950   .     S
C4626  C4627   1.360   .     S
C4626  N4632   1.360   .     D
C4626  H4634   0.950   .     S
C4627  C4628   1.500   .     D
C4628  C4630   1.390   .     S
C4628  C4689   1.390   .     S
C4629  C4630   1.390   .     D
C4629  H4635   0.950   .     S
C4629  C4688   1.390   .     S
C4630  H4636   0.950   .     S
N4631  N4632   1.360   .     S
N4632  Fe4699  2.139   .     S
C4637  C4639   1.360   .     S
C4637  N4643   1.360   .     D
C4637  H4645   0.950   .     S
C4638  C4639   1.360   .     S
C4638  N4644   1.360   .     D
C4638  H4646   0.950   .     S
C4639  C4640   1.500   .     D
C4640  C4642   1.390   .     S
C4640  C4677   1.390   .     S
C4641  C4642   1.390   .     D
C4641  H4647   0.950   .     S
C4641  C4676   1.390   .     S
C4642  H4648   0.950   .     S
N4643  N4644   1.360   .     S
N4643  Fe4798  2.091   .     S
N4644  Fe4800  2.139   .     S
C4649  C4651   1.360   .     S
C4649  N4655   1.360   .     D
C4649  H4657   0.950   .     S
C4650  N4656   1.360   .     D
C4650  H4658   0.950   .     S
C4651  C6250   1.360   .     S
C4651  C4652   1.500   .     D
C4652  C4654   1.390   .     S
C4652  C6217   1.390   .     S
C4653  C4654   1.390   .     D
C4653  H4659   0.950   .     S
C4653  C6216   1.390   .     S
C4654  H4660   0.950   .     S
N4655  N6256   1.360   .     S
N4655  Fe3499  2.091   1_565 S
N4656  Fe4697  2.139   .     S
C4661  C4663   1.360   .     S
C4661  N4667   1.360   .     D
C4661  H4669   0.950   .     S
C4662  N4668   1.360   .     D
C4662  H4670   0.950   .     S
C4663  C6262   1.360   .     S
C4663  C4664   1.500   .     D
C4664  C4666   1.390   .     S
C4664  C6205   1.390   .     S
C4665  C4666   1.390   .     D
C4665  H4671   0.950   .     S
C4665  C6204   1.390   .     S
C4666  H4672   0.950   .     S
N4667  N6268   1.360   .     S
N4667  Fe4800  2.091   .     S
N4668  Fe4798  2.139   .     S
C4673  C4675   1.360   .     S
C4673  N4679   1.360   .     D
C4673  H4681   0.950   .     S
C4674  C4675   1.360   .     S
C4674  N4680   1.360   .     D
C4674  H4682   0.950   .     S
C4675  C4676   1.500   .     D
C4676  C4678   1.390   .     S
C4677  C4678   1.390   .     D
C4677  H4683   0.950   .     S
C4678  H4684   0.950   .     S
N4679  N4680   1.360   .     S
N4679  Fe3499  2.091   1_565 S
N4680  Fe4697  2.139   .     S
C4685  C4687   1.360   .     S
C4685  N4691   1.360   .     D
C4685  H4693   0.950   .     S
C4686  C4687   1.360   .     S
C4686  N4692   1.360   .     D
C4686  H4694   0.950   .     S
C4687  C4688   1.500   .     D
C4688  C4690   1.390   .     S
C4689  C4690   1.390   .     D
C4689  H4695   0.950   .     S
C4690  H4696   0.950   .     S
N4691  N4692   1.360   .     S
N4691  Fe4700  2.091   .     S
N4692  Fe4698  2.139   .     S
Fe4697 N3407   2.091   1_565 S
Fe4697 N3431   2.091   1_565 S
C4701  C4703   1.360   .     S
C4701  N4707   1.360   .     D
C4701  H4709   0.950   .     S
C4702  C6303   1.360   .     S
C4702  N4708   1.360   .     D
C4702  H4710   0.950   .     S
C4703  C4704   1.500   .     D
C4704  C4706   1.390   .     S
C4705  C4706   1.390   .     D
C4705  H4711   0.950   .     S
C4706  H4712   0.950   .     S
N4708  N6307   1.360   .     S
N4708  Fe4799  2.139   .     S
C4713  C4715   1.360   .     S
C4713  N4719   1.360   .     D
C4713  H4721   0.950   .     S
C4714  C6315   1.360   .     S
C4714  N4720   1.360   .     D
C4714  H4722   0.950   .     S
C4715  C4716   1.500   .     D
C4716  C4718   1.390   .     S
C4717  C4718   1.390   .     D
C4717  H4723   0.950   .     S
C4718  H4724   0.950   .     S
N4719  Fe4798  2.091   .     S
N4720  N6319   1.360   .     S
N4720  Fe4800  2.139   .     S
C4725  C4727   1.360   .     S
C4725  N4731   1.360   .     D
C4725  H4733   0.950   .     S
C4726  C4727   1.360   .     S
C4726  N4732   1.360   .     D
C4726  H4734   0.950   .     S
C4727  C4728   1.500   .     D
C4728  C4730   1.390   .     S
C4728  C4789   1.390   .     S
C4729  C4730   1.390   .     D
C4729  H4735   0.950   .     S
C4729  C4788   1.390   .     S
C4730  H4736   0.950   .     S
N4731  N4732   1.360   .     S
N4732  Fe4799  2.139   .     S
C4737  C4739   1.360   .     S
C4737  N4743   1.360   .     D
C4737  H4745   0.950   .     S
C4738  C4739   1.360   .     S
C4738  N4744   1.360   .     D
C4738  H4746   0.950   .     S
C4739  C4740   1.500   .     D
C4740  C4742   1.390   .     S
C4740  C4777   1.390   .     S
C4741  C4742   1.390   .     D
C4741  H4747   0.950   .     S
C4741  C4776   1.390   .     S
C4742  H4748   0.950   .     S
N4743  N4744   1.360   .     S
N4743  Fe4498  2.091   1_655 S
N4744  Fe4500  2.139   1_655 S
C4749  C4751   1.360   .     S
C4749  N4755   1.360   .     D
C4749  H4757   0.950   .     S
C4750  N4756   1.360   .     D
C4750  H4758   0.950   .     S
C4751  C6350   1.360   .     S
C4751  C4752   1.500   .     D
C4752  C4754   1.390   .     S
C4752  C6317   1.390   .     S
C4753  C4754   1.390   .     D
C4753  H4759   0.950   .     S
C4753  C6316   1.390   .     S
C4754  H4760   0.950   .     S
N4755  N6356   1.360   .     S
N4755  Fe3599  2.091   1_565 S
N4756  Fe4797  2.139   .     S
C4761  C4763   1.360   .     S
C4761  N4767   1.360   .     D
C4761  H4769   0.950   .     S
C4762  N4768   1.360   .     D
C4762  H4770   0.950   .     S
C4763  C6362   1.360   .     S
C4763  C4764   1.500   .     D
C4764  C4766   1.390   .     S
C4764  C6305   1.390   .     S
C4765  C4766   1.390   .     D
C4765  H4771   0.950   .     S
C4765  C6304   1.390   .     S
C4766  H4772   0.950   .     S
N4767  N6368   1.360   .     S
N4767  Fe4500  2.091   1_655 S
N4768  Fe4498  2.139   1_655 S
C4773  C4775   1.360   .     S
C4773  N4779   1.360   .     D
C4773  H4781   0.950   .     S
C4774  C4775   1.360   .     S
C4774  N4780   1.360   .     D
C4774  H4782   0.950   .     S
C4775  C4776   1.500   .     D
C4776  C4778   1.390   .     S
C4777  C4778   1.390   .     D
C4777  H4783   0.950   .     S
C4778  H4784   0.950   .     S
N4779  N4780   1.360   .     S
N4779  Fe3599  2.091   1_565 S
N4780  Fe4797  2.139   .     S
C4785  C4787   1.360   .     S
C4785  N4791   1.360   .     D
C4785  H4793   0.950   .     S
C4786  C4787   1.360   .     S
C4786  N4792   1.360   .     D
C4786  H4794   0.950   .     S
C4787  C4788   1.500   .     D
C4788  C4790   1.390   .     S
C4789  C4790   1.390   .     D
C4789  H4795   0.950   .     S
C4790  H4796   0.950   .     S
N4791  N4792   1.360   .     S
N4791  Fe4800  2.091   .     S
N4792  Fe4798  2.139   .     S
Fe4797 N3507   2.091   1_565 S
Fe4797 N3531   2.091   1_565 S
C4801  C4803   1.360   .     S
C4801  N4807   1.360   .     D
C4801  H4809   0.950   .     S
C4802  C3      1.360   1_556 S
C4802  N4808   1.360   .     D
C4802  H4810   0.950   .     S
C4803  C4804   1.500   .     D
C4804  C4806   1.390   .     S
C4805  C4806   1.390   .     D
C4805  H4811   0.950   .     S
C4806  H4812   0.950   .     S
N4807  Fe6097  2.091   1_545 S
N4808  N7      1.360   1_556 S
N4808  Fe4899  2.139   .     S
C4813  C4815   1.360   .     S
C4813  N4819   1.360   .     D
C4813  H4821   0.950   .     S
C4814  C15     1.360   1_556 S
C4814  N4820   1.360   .     D
C4814  H4822   0.950   .     S
C4815  C4816   1.500   .     D
C4816  C4818   1.390   .     S
C4817  C4818   1.390   .     D
C4817  H4823   0.950   .     S
C4818  H4824   0.950   .     S
N4819  Fe4898  2.091   .     S
N4820  N19     1.360   1_556 S
N4820  Fe4900  2.139   .     S
C4825  C4827   1.360   .     S
C4825  N4831   1.360   .     D
C4825  H4833   0.950   .     S
C4826  C4827   1.360   .     S
C4826  N4832   1.360   .     D
C4826  H4834   0.950   .     S
C4827  C4828   1.500   .     D
C4828  C4830   1.390   .     S
C4828  C4889   1.390   .     S
C4829  C4830   1.390   .     D
C4829  H4835   0.950   .     S
C4829  C4888   1.390   .     S
C4830  H4836   0.950   .     S
N4831  N4832   1.360   .     S
N4831  Fe6097  2.091   1_545 S
N4832  Fe4899  2.139   .     S
C4837  C4839   1.360   .     S
C4837  N4843   1.360   .     D
C4837  H4845   0.950   .     S
C4838  C4839   1.360   .     S
C4838  N4844   1.360   .     D
C4838  H4846   0.950   .     S
C4839  C4840   1.500   .     D
C4840  C4842   1.390   .     S
C4840  C4877   1.390   .     S
C4841  C4842   1.390   .     D
C4841  H4847   0.950   .     S
C4841  C4876   1.390   .     S
C4842  H4848   0.950   .     S
N4843  N4844   1.360   .     S
N4843  Fe4998  2.091   .     S
N4844  Fe5000  2.139   .     S
C4849  C4851   1.360   .     S
C4849  N4855   1.360   .     D
C4849  H4857   0.950   .     S
C4850  N4856   1.360   .     D
C4850  H4858   0.950   .     S
C4851  C50     1.360   1_556 S
C4851  C4852   1.500   .     D
C4852  C4854   1.390   .     S
C4852  C17     1.390   1_556 S
C4853  C4854   1.390   .     D
C4853  H4859   0.950   .     S
C4853  C16     1.390   1_556 S
C4854  H4860   0.950   .     S
N4855  N56     1.360   1_556 S
N4855  Fe5299  2.091   .     S
N4856  Fe4897  2.139   .     S
C4861  C4863   1.360   .     S
C4861  N4867   1.360   .     D
C4861  H4869   0.950   .     S
C4862  N4868   1.360   .     D
C4862  H4870   0.950   .     S
C4863  C62     1.360   1_556 S
C4863  C4864   1.500   .     D
C4864  C4866   1.390   .     S
C4864  C5      1.390   1_556 S
C4865  C4866   1.390   .     D
C4865  H4871   0.950   .     S
C4865  C4      1.390   1_556 S
C4866  H4872   0.950   .     S
N4867  N68     1.360   1_556 S
N4867  Fe5000  2.091   .     S
N4868  Fe4998  2.139   .     S
C4873  C4875   1.360   .     S
C4873  N4879   1.360   .     D
C4873  H4881   0.950   .     S
C4874  C4875   1.360   .     S
C4874  N4880   1.360   .     D
C4874  H4882   0.950   .     S
C4875  C4876   1.500   .     D
C4876  C4878   1.390   .     S
C4877  C4878   1.390   .     D
C4877  H4883   0.950   .     S
C4878  H4884   0.950   .     S
N4879  N4880   1.360   .     S
N4879  Fe5299  2.091   .     S
N4880  Fe4897  2.139   .     S
C4885  C4887   1.360   .     S
C4885  N4891   1.360   .     D
C4885  H4893   0.950   .     S
C4886  C4887   1.360   .     S
C4886  N4892   1.360   .     D
C4886  H4894   0.950   .     S
C4887  C4888   1.500   .     D
C4888  C4890   1.390   .     S
C4889  C4890   1.390   .     D
C4889  H4895   0.950   .     S
C4890  H4896   0.950   .     S
N4891  N4892   1.360   .     S
N4891  Fe4900  2.091   .     S
N4892  Fe4898  2.139   .     S
Fe4897 N5207   2.091   .     S
Fe4897 N5231   2.091   .     S
Fe4898 N5143   2.091   1_455 S
Fe4898 N5168   2.139   1_455 S
Fe4899 N6055   2.091   1_545 S
Fe4899 N6079   2.091   1_545 S
Fe4900 N5167   2.091   1_455 S
Fe4900 N5144   2.139   1_455 S
C4901  C4903   1.360   .     S
C4901  N4907   1.360   .     D
C4901  H4909   0.950   .     S
C4902  C103    1.360   1_556 S
C4902  N4908   1.360   .     D
C4902  H4910   0.950   .     S
C4903  C4904   1.500   .     D
C4904  C4906   1.390   .     S
C4905  C4906   1.390   .     D
C4905  H4911   0.950   .     S
C4906  H4912   0.950   .     S
N4907  Fe6197  2.091   1_545 S
N4908  N107    1.360   1_556 S
N4908  Fe4999  2.139   .     S
C4913  C4915   1.360   .     S
C4913  N4919   1.360   .     D
C4913  H4921   0.950   .     S
C4914  C115    1.360   1_556 S
C4914  N4920   1.360   .     D
C4914  H4922   0.950   .     S
C4915  C4916   1.500   .     D
C4916  C4918   1.390   .     S
C4917  C4918   1.390   .     D
C4917  H4923   0.950   .     S
C4918  H4924   0.950   .     S
N4919  Fe4998  2.091   .     S
N4920  N119    1.360   1_556 S
N4920  Fe5000  2.139   .     S
C4925  C4927   1.360   .     S
C4925  N4931   1.360   .     D
C4925  H4933   0.950   .     S
C4926  C4927   1.360   .     S
C4926  N4932   1.360   .     D
C4926  H4934   0.950   .     S
C4927  C4928   1.500   .     D
C4928  C4930   1.390   .     S
C4928  C4989   1.390   .     S
C4929  C4930   1.390   .     D
C4929  H4935   0.950   .     S
C4929  C4988   1.390   .     S
C4930  H4936   0.950   .     S
N4931  N4932   1.360   .     S
N4931  Fe6197  2.091   1_545 S
N4932  Fe4999  2.139   .     S
C4937  C4939   1.360   .     S
C4937  N4943   1.360   .     D
C4937  H4945   0.950   .     S
C4938  C4939   1.360   .     S
C4938  N4944   1.360   .     D
C4938  H4946   0.950   .     S
C4939  C4940   1.500   .     D
C4940  C4942   1.390   .     S
C4940  C4977   1.390   .     S
C4941  C4942   1.390   .     D
C4941  H4947   0.950   .     S
C4941  C4976   1.390   .     S
C4942  H4948   0.950   .     S
N4943  N4944   1.360   .     S
N4943  Fe5098  2.091   .     S
N4944  Fe5100  2.139   .     S
C4949  C4951   1.360   .     S
C4949  N4955   1.360   .     D
C4949  H4957   0.950   .     S
C4950  N4956   1.360   .     D
C4950  H4958   0.950   .     S
C4951  C150    1.360   1_556 S
C4951  C4952   1.500   .     D
C4952  C4954   1.390   .     S
C4952  C117    1.390   1_556 S
C4953  C4954   1.390   .     D
C4953  H4959   0.950   .     S
C4953  C116    1.390   1_556 S
C4954  H4960   0.950   .     S
N4955  N156    1.360   1_556 S
N4955  Fe5399  2.091   .     S
N4956  Fe4997  2.139   .     S
C4961  C4963   1.360   .     S
C4961  N4967   1.360   .     D
C4961  H4969   0.950   .     S
C4962  N4968   1.360   .     D
C4962  H4970   0.950   .     S
C4963  C162    1.360   1_556 S
C4963  C4964   1.500   .     D
C4964  C4966   1.390   .     S
C4964  C105    1.390   1_556 S
C4965  C4966   1.390   .     D
C4965  H4971   0.950   .     S
C4965  C104    1.390   1_556 S
C4966  H4972   0.950   .     S
N4967  N168    1.360   1_556 S
N4967  Fe5100  2.091   .     S
N4968  Fe5098  2.139   .     S
C4973  C4975   1.360   .     S
C4973  N4979   1.360   .     D
C4973  H4981   0.950   .     S
C4974  C4975   1.360   .     S
C4974  N4980   1.360   .     D
C4974  H4982   0.950   .     S
C4975  C4976   1.500   .     D
C4976  C4978   1.390   .     S
C4977  C4978   1.390   .     D
C4977  H4983   0.950   .     S
C4978  H4984   0.950   .     S
N4979  N4980   1.360   .     S
N4979  Fe5399  2.091   .     S
N4980  Fe4997  2.139   .     S
C4985  C4987   1.360   .     S
C4985  N4991   1.360   .     D
C4985  H4993   0.950   .     S
C4986  C4987   1.360   .     S
C4986  N4992   1.360   .     D
C4986  H4994   0.950   .     S
C4987  C4988   1.500   .     D
C4988  C4990   1.390   .     S
C4989  C4990   1.390   .     D
C4989  H4995   0.950   .     S
C4990  H4996   0.950   .     S
N4991  N4992   1.360   .     S
N4991  Fe5000  2.091   .     S
N4992  Fe4998  2.139   .     S
Fe4997 N5307   2.091   .     S
Fe4997 N5331   2.091   .     S
Fe4999 N6155   2.091   1_545 S
Fe4999 N6179   2.091   1_545 S
C5001  C5003   1.360   .     S
C5001  N5007   1.360   .     D
C5001  H5009   0.950   .     S
C5002  C203    1.360   1_556 S
C5002  N5008   1.360   .     D
C5002  H5010   0.950   .     S
C5003  C5004   1.500   .     D
C5004  C5006   1.390   .     S
C5005  C5006   1.390   .     D
C5005  H5011   0.950   .     S
C5006  H5012   0.950   .     S
N5007  Fe6297  2.091   1_545 S
N5008  N207    1.360   1_556 S
N5008  Fe5099  2.139   .     S
C5013  C5015   1.360   .     S
C5013  N5019   1.360   .     D
C5013  H5021   0.950   .     S
C5014  C215    1.360   1_556 S
C5014  N5020   1.360   .     D
C5014  H5022   0.950   .     S
C5015  C5016   1.500   .     D
C5016  C5018   1.390   .     S
C5017  C5018   1.390   .     D
C5017  H5023   0.950   .     S
C5018  H5024   0.950   .     S
N5019  Fe5098  2.091   .     S
N5020  N219    1.360   1_556 S
N5020  Fe5100  2.139   .     S
C5025  C5027   1.360   .     S
C5025  N5031   1.360   .     D
C5025  H5033   0.950   .     S
C5026  C5027   1.360   .     S
C5026  N5032   1.360   .     D
C5026  H5034   0.950   .     S
C5027  C5028   1.500   .     D
C5028  C5030   1.390   .     S
C5028  C5089   1.390   .     S
C5029  C5030   1.390   .     D
C5029  H5035   0.950   .     S
C5029  C5088   1.390   .     S
C5030  H5036   0.950   .     S
N5031  N5032   1.360   .     S
N5031  Fe6297  2.091   1_545 S
N5032  Fe5099  2.139   .     S
C5037  C5039   1.360   .     S
C5037  N5043   1.360   .     D
C5037  H5045   0.950   .     S
C5038  C5039   1.360   .     S
C5038  N5044   1.360   .     D
C5038  H5046   0.950   .     S
C5039  C5040   1.500   .     D
C5040  C5042   1.390   .     S
C5040  C5077   1.390   .     S
C5041  C5042   1.390   .     D
C5041  H5047   0.950   .     S
C5041  C5076   1.390   .     S
C5042  H5048   0.950   .     S
N5043  N5044   1.360   .     S
N5043  Fe5198  2.091   .     S
N5044  Fe5200  2.139   .     S
C5049  C5051   1.360   .     S
C5049  N5055   1.360   .     D
C5049  H5057   0.950   .     S
C5050  N5056   1.360   .     D
C5050  H5058   0.950   .     S
C5051  C250    1.360   1_556 S
C5051  C5052   1.500   .     D
C5052  C5054   1.390   .     S
C5052  C217    1.390   1_556 S
C5053  C5054   1.390   .     D
C5053  H5059   0.950   .     S
C5053  C216    1.390   1_556 S
C5054  H5060   0.950   .     S
N5055  N256    1.360   1_556 S
N5055  Fe5499  2.091   .     S
N5056  Fe5097  2.139   .     S
C5061  C5063   1.360   .     S
C5061  N5067   1.360   .     D
C5061  H5069   0.950   .     S
C5062  N5068   1.360   .     D
C5062  H5070   0.950   .     S
C5063  C262    1.360   1_556 S
C5063  C5064   1.500   .     D
C5064  C5066   1.390   .     S
C5064  C205    1.390   1_556 S
C5065  C5066   1.390   .     D
C5065  H5071   0.950   .     S
C5065  C204    1.390   1_556 S
C5066  H5072   0.950   .     S
N5067  N268    1.360   1_556 S
N5067  Fe5200  2.091   .     S
N5068  Fe5198  2.139   .     S
C5073  C5075   1.360   .     S
C5073  N5079   1.360   .     D
C5073  H5081   0.950   .     S
C5074  C5075   1.360   .     S
C5074  N5080   1.360   .     D
C5074  H5082   0.950   .     S
C5075  C5076   1.500   .     D
C5076  C5078   1.390   .     S
C5077  C5078   1.390   .     D
C5077  H5083   0.950   .     S
C5078  H5084   0.950   .     S
N5079  N5080   1.360   .     S
N5079  Fe5499  2.091   .     S
N5080  Fe5097  2.139   .     S
C5085  C5087   1.360   .     S
C5085  N5091   1.360   .     D
C5085  H5093   0.950   .     S
C5086  C5087   1.360   .     S
C5086  N5092   1.360   .     D
C5086  H5094   0.950   .     S
C5087  C5088   1.500   .     D
C5088  C5090   1.390   .     S
C5089  C5090   1.390   .     D
C5089  H5095   0.950   .     S
C5090  H5096   0.950   .     S
N5091  N5092   1.360   .     S
N5091  Fe5100  2.091   .     S
N5092  Fe5098  2.139   .     S
Fe5097 N5407   2.091   .     S
Fe5097 N5431   2.091   .     S
Fe5099 N6255   2.091   1_545 S
Fe5099 N6279   2.091   1_545 S
C5101  C5103   1.360   .     S
C5101  N5107   1.360   .     D
C5101  H5109   0.950   .     S
C5102  C303    1.360   1_556 S
C5102  N5108   1.360   .     D
C5102  H5110   0.950   .     S
C5103  C5104   1.500   .     D
C5104  C5106   1.390   .     S
C5105  C5106   1.390   .     D
C5105  H5111   0.950   .     S
C5106  H5112   0.950   .     S
N5107  Fe6397  2.091   1_545 S
N5108  N307    1.360   1_556 S
N5108  Fe5199  2.139   .     S
C5113  C5115   1.360   .     S
C5113  N5119   1.360   .     D
C5113  H5121   0.950   .     S
C5114  C315    1.360   1_556 S
C5114  N5120   1.360   .     D
C5114  H5122   0.950   .     S
C5115  C5116   1.500   .     D
C5116  C5118   1.390   .     S
C5117  C5118   1.390   .     D
C5117  H5123   0.950   .     S
C5118  H5124   0.950   .     S
N5119  Fe5198  2.091   .     S
N5120  N319    1.360   1_556 S
N5120  Fe5200  2.139   .     S
C5125  C5127   1.360   .     S
C5125  N5131   1.360   .     D
C5125  H5133   0.950   .     S
C5126  C5127   1.360   .     S
C5126  N5132   1.360   .     D
C5126  H5134   0.950   .     S
C5127  C5128   1.500   .     D
C5128  C5130   1.390   .     S
C5128  C5189   1.390   .     S
C5129  C5130   1.390   .     D
C5129  H5135   0.950   .     S
C5129  C5188   1.390   .     S
C5130  H5136   0.950   .     S
N5131  N5132   1.360   .     S
N5131  Fe6397  2.091   1_545 S
N5132  Fe5199  2.139   .     S
C5137  C5139   1.360   .     S
C5137  N5143   1.360   .     D
C5137  H5145   0.950   .     S
C5138  C5139   1.360   .     S
C5138  N5144   1.360   .     D
C5138  H5146   0.950   .     S
C5139  C5140   1.500   .     D
C5140  C5142   1.390   .     S
C5140  C5177   1.390   .     S
C5141  C5142   1.390   .     D
C5141  H5147   0.950   .     S
C5141  C5176   1.390   .     S
C5142  H5148   0.950   .     S
N5143  N5144   1.360   .     S
N5143  Fe4898  2.091   1_655 S
N5144  Fe4900  2.139   1_655 S
C5149  C5151   1.360   .     S
C5149  N5155   1.360   .     D
C5149  H5157   0.950   .     S
C5150  N5156   1.360   .     D
C5150  H5158   0.950   .     S
C5151  C350    1.360   1_556 S
C5151  C5152   1.500   .     D
C5152  C5154   1.390   .     S
C5152  C317    1.390   1_556 S
C5153  C5154   1.390   .     D
C5153  H5159   0.950   .     S
C5153  C316    1.390   1_556 S
C5154  H5160   0.950   .     S
N5155  N356    1.360   1_556 S
N5155  Fe5599  2.091   .     S
N5156  Fe5197  2.139   .     S
C5161  C5163   1.360   .     S
C5161  N5167   1.360   .     D
C5161  H5169   0.950   .     S
C5162  N5168   1.360   .     D
C5162  H5170   0.950   .     S
C5163  C362    1.360   1_556 S
C5163  C5164   1.500   .     D
C5164  C5166   1.390   .     S
C5164  C305    1.390   1_556 S
C5165  C5166   1.390   .     D
C5165  H5171   0.950   .     S
C5165  C304    1.390   1_556 S
C5166  H5172   0.950   .     S
N5167  N368    1.360   1_556 S
N5167  Fe4900  2.091   1_655 S
N5168  Fe4898  2.139   1_655 S
C5173  C5175   1.360   .     S
C5173  N5179   1.360   .     D
C5173  H5181   0.950   .     S
C5174  C5175   1.360   .     S
C5174  N5180   1.360   .     D
C5174  H5182   0.950   .     S
C5175  C5176   1.500   .     D
C5176  C5178   1.390   .     S
C5177  C5178   1.390   .     D
C5177  H5183   0.950   .     S
C5178  H5184   0.950   .     S
N5179  N5180   1.360   .     S
N5179  Fe5599  2.091   .     S
N5180  Fe5197  2.139   .     S
C5185  C5187   1.360   .     S
C5185  N5191   1.360   .     D
C5185  H5193   0.950   .     S
C5186  C5187   1.360   .     S
C5186  N5192   1.360   .     D
C5186  H5194   0.950   .     S
C5187  C5188   1.500   .     D
C5188  C5190   1.390   .     S
C5189  C5190   1.390   .     D
C5189  H5195   0.950   .     S
C5190  H5196   0.950   .     S
N5191  N5192   1.360   .     S
N5191  Fe5200  2.091   .     S
N5192  Fe5198  2.139   .     S
Fe5197 N5507   2.091   .     S
Fe5197 N5531   2.091   .     S
Fe5199 N6355   2.091   1_545 S
Fe5199 N6379   2.091   1_545 S
C5201  C5203   1.360   .     S
C5201  N5207   1.360   .     D
C5201  H5209   0.950   .     S
C5202  C403    1.360   1_556 S
C5202  N5208   1.360   .     D
C5202  H5210   0.950   .     S
C5203  C5204   1.500   .     D
C5204  C5206   1.390   .     S
C5205  C5206   1.390   .     D
C5205  H5211   0.950   .     S
C5206  H5212   0.950   .     S
N5208  N407    1.360   1_556 S
N5208  Fe5299  2.139   .     S
C5213  C5215   1.360   .     S
C5213  N5219   1.360   .     D
C5213  H5221   0.950   .     S
C5214  C415    1.360   1_556 S
C5214  N5220   1.360   .     D
C5214  H5222   0.950   .     S
C5215  C5216   1.500   .     D
C5216  C5218   1.390   .     S
C5217  C5218   1.390   .     D
C5217  H5223   0.950   .     S
C5218  H5224   0.950   .     S
N5219  Fe5298  2.091   .     S
N5220  N419    1.360   1_556 S
N5220  Fe5300  2.139   .     S
C5225  C5227   1.360   .     S
C5225  N5231   1.360   .     D
C5225  H5233   0.950   .     S
C5226  C5227   1.360   .     S
C5226  N5232   1.360   .     D
C5226  H5234   0.950   .     S
C5227  C5228   1.500   .     D
C5228  C5230   1.390   .     S
C5228  C5289   1.390   .     S
C5229  C5230   1.390   .     D
C5229  H5235   0.950   .     S
C5229  C5288   1.390   .     S
C5230  H5236   0.950   .     S
N5231  N5232   1.360   .     S
N5232  Fe5299  2.139   .     S
C5237  C5239   1.360   .     S
C5237  N5243   1.360   .     D
C5237  H5245   0.950   .     S
C5238  C5239   1.360   .     S
C5238  N5244   1.360   .     D
C5238  H5246   0.950   .     S
C5239  C5240   1.500   .     D
C5240  C5242   1.390   .     S
C5240  C5277   1.390   .     S
C5241  C5242   1.390   .     D
C5241  H5247   0.950   .     S
C5241  C5276   1.390   .     S
C5242  H5248   0.950   .     S
N5243  N5244   1.360   .     S
N5243  Fe5398  2.091   .     S
N5244  Fe5400  2.139   .     S
C5249  C5251   1.360   .     S
C5249  N5255   1.360   .     D
C5249  H5257   0.950   .     S
C5250  N5256   1.360   .     D
C5250  H5258   0.950   .     S
C5251  C450    1.360   1_556 S
C5251  C5252   1.500   .     D
C5252  C5254   1.390   .     S
C5252  C417    1.390   1_556 S
C5253  C5254   1.390   .     D
C5253  H5259   0.950   .     S
C5253  C416    1.390   1_556 S
C5254  H5260   0.950   .     S
N5255  N456    1.360   1_556 S
N5255  Fe5699  2.091   .     S
N5256  Fe5297  2.139   .     S
C5261  C5263   1.360   .     S
C5261  N5267   1.360   .     D
C5261  H5269   0.950   .     S
C5262  N5268   1.360   .     D
C5262  H5270   0.950   .     S
C5263  C462    1.360   1_556 S
C5263  C5264   1.500   .     D
C5264  C5266   1.390   .     S
C5264  C405    1.390   1_556 S
C5265  C5266   1.390   .     D
C5265  H5271   0.950   .     S
C5265  C404    1.390   1_556 S
C5266  H5272   0.950   .     S
N5267  N468    1.360   1_556 S
N5267  Fe5400  2.091   .     S
N5268  Fe5398  2.139   .     S
C5273  C5275   1.360   .     S
C5273  N5279   1.360   .     D
C5273  H5281   0.950   .     S
C5274  C5275   1.360   .     S
C5274  N5280   1.360   .     D
C5274  H5282   0.950   .     S
C5275  C5276   1.500   .     D
C5276  C5278   1.390   .     S
C5277  C5278   1.390   .     D
C5277  H5283   0.950   .     S
C5278  H5284   0.950   .     S
N5279  N5280   1.360   .     S
N5279  Fe5699  2.091   .     S
N5280  Fe5297  2.139   .     S
C5285  C5287   1.360   .     S
C5285  N5291   1.360   .     D
C5285  H5293   0.950   .     S
C5286  C5287   1.360   .     S
C5286  N5292   1.360   .     D
C5286  H5294   0.950   .     S
C5287  C5288   1.500   .     D
C5288  C5290   1.390   .     S
C5289  C5290   1.390   .     D
C5289  H5295   0.950   .     S
C5290  H5296   0.950   .     S
N5291  N5292   1.360   .     S
N5291  Fe5300  2.091   .     S
N5292  Fe5298  2.139   .     S
Fe5297 N5607   2.091   .     S
Fe5297 N5631   2.091   .     S
Fe5298 N5543   2.091   1_455 S
Fe5298 N5568   2.139   1_455 S
Fe5300 N5567   2.091   1_455 S
Fe5300 N5544   2.139   1_455 S
C5301  C5303   1.360   .     S
C5301  N5307   1.360   .     D
C5301  H5309   0.950   .     S
C5302  C503    1.360   1_556 S
C5302  N5308   1.360   .     D
C5302  H5310   0.950   .     S
C5303  C5304   1.500   .     D
C5304  C5306   1.390   .     S
C5305  C5306   1.390   .     D
C5305  H5311   0.950   .     S
C5306  H5312   0.950   .     S
N5308  N507    1.360   1_556 S
N5308  Fe5399  2.139   .     S
C5313  C5315   1.360   .     S
C5313  N5319   1.360   .     D
C5313  H5321   0.950   .     S
C5314  C515    1.360   1_556 S
C5314  N5320   1.360   .     D
C5314  H5322   0.950   .     S
C5315  C5316   1.500   .     D
C5316  C5318   1.390   .     S
C5317  C5318   1.390   .     D
C5317  H5323   0.950   .     S
C5318  H5324   0.950   .     S
N5319  Fe5398  2.091   .     S
N5320  N519    1.360   1_556 S
N5320  Fe5400  2.139   .     S
C5325  C5327   1.360   .     S
C5325  N5331   1.360   .     D
C5325  H5333   0.950   .     S
C5326  C5327   1.360   .     S
C5326  N5332   1.360   .     D
C5326  H5334   0.950   .     S
C5327  C5328   1.500   .     D
C5328  C5330   1.390   .     S
C5328  C5389   1.390   .     S
C5329  C5330   1.390   .     D
C5329  H5335   0.950   .     S
C5329  C5388   1.390   .     S
C5330  H5336   0.950   .     S
N5331  N5332   1.360   .     S
N5332  Fe5399  2.139   .     S
C5337  C5339   1.360   .     S
C5337  N5343   1.360   .     D
C5337  H5345   0.950   .     S
C5338  C5339   1.360   .     S
C5338  N5344   1.360   .     D
C5338  H5346   0.950   .     S
C5339  C5340   1.500   .     D
C5340  C5342   1.390   .     S
C5340  C5377   1.390   .     S
C5341  C5342   1.390   .     D
C5341  H5347   0.950   .     S
C5341  C5376   1.390   .     S
C5342  H5348   0.950   .     S
N5343  N5344   1.360   .     S
N5343  Fe5498  2.091   .     S
N5344  Fe5500  2.139   .     S
C5349  C5351   1.360   .     S
C5349  N5355   1.360   .     D
C5349  H5357   0.950   .     S
C5350  N5356   1.360   .     D
C5350  H5358   0.950   .     S
C5351  C550    1.360   1_556 S
C5351  C5352   1.500   .     D
C5352  C5354   1.390   .     S
C5352  C517    1.390   1_556 S
C5353  C5354   1.390   .     D
C5353  H5359   0.950   .     S
C5353  C516    1.390   1_556 S
C5354  H5360   0.950   .     S
N5355  N556    1.360   1_556 S
N5355  Fe5799  2.091   .     S
N5356  Fe5397  2.139   .     S
C5361  C5363   1.360   .     S
C5361  N5367   1.360   .     D
C5361  H5369   0.950   .     S
C5362  N5368   1.360   .     D
C5362  H5370   0.950   .     S
C5363  C562    1.360   1_556 S
C5363  C5364   1.500   .     D
C5364  C5366   1.390   .     S
C5364  C505    1.390   1_556 S
C5365  C5366   1.390   .     D
C5365  H5371   0.950   .     S
C5365  C504    1.390   1_556 S
C5366  H5372   0.950   .     S
N5367  N568    1.360   1_556 S
N5367  Fe5500  2.091   .     S
N5368  Fe5498  2.139   .     S
C5373  C5375   1.360   .     S
C5373  N5379   1.360   .     D
C5373  H5381   0.950   .     S
C5374  C5375   1.360   .     S
C5374  N5380   1.360   .     D
C5374  H5382   0.950   .     S
C5375  C5376   1.500   .     D
C5376  C5378   1.390   .     S
C5377  C5378   1.390   .     D
C5377  H5383   0.950   .     S
C5378  H5384   0.950   .     S
N5379  N5380   1.360   .     S
N5379  Fe5799  2.091   .     S
N5380  Fe5397  2.139   .     S
C5385  C5387   1.360   .     S
C5385  N5391   1.360   .     D
C5385  H5393   0.950   .     S
C5386  C5387   1.360   .     S
C5386  N5392   1.360   .     D
C5386  H5394   0.950   .     S
C5387  C5388   1.500   .     D
C5388  C5390   1.390   .     S
C5389  C5390   1.390   .     D
C5389  H5395   0.950   .     S
C5390  H5396   0.950   .     S
N5391  N5392   1.360   .     S
N5391  Fe5400  2.091   .     S
N5392  Fe5398  2.139   .     S
Fe5397 N5707   2.091   .     S
Fe5397 N5731   2.091   .     S
C5401  C5403   1.360   .     S
C5401  N5407   1.360   .     D
C5401  H5409   0.950   .     S
C5402  C603    1.360   1_556 S
C5402  N5408   1.360   .     D
C5402  H5410   0.950   .     S
C5403  C5404   1.500   .     D
C5404  C5406   1.390   .     S
C5405  C5406   1.390   .     D
C5405  H5411   0.950   .     S
C5406  H5412   0.950   .     S
N5408  N607    1.360   1_556 S
N5408  Fe5499  2.139   .     S
C5413  C5415   1.360   .     S
C5413  N5419   1.360   .     D
C5413  H5421   0.950   .     S
C5414  C615    1.360   1_556 S
C5414  N5420   1.360   .     D
C5414  H5422   0.950   .     S
C5415  C5416   1.500   .     D
C5416  C5418   1.390   .     S
C5417  C5418   1.390   .     D
C5417  H5423   0.950   .     S
C5418  H5424   0.950   .     S
N5419  Fe5498  2.091   .     S
N5420  N619    1.360   1_556 S
N5420  Fe5500  2.139   .     S
C5425  C5427   1.360   .     S
C5425  N5431   1.360   .     D
C5425  H5433   0.950   .     S
C5426  C5427   1.360   .     S
C5426  N5432   1.360   .     D
C5426  H5434   0.950   .     S
C5427  C5428   1.500   .     D
C5428  C5430   1.390   .     S
C5428  C5489   1.390   .     S
C5429  C5430   1.390   .     D
C5429  H5435   0.950   .     S
C5429  C5488   1.390   .     S
C5430  H5436   0.950   .     S
N5431  N5432   1.360   .     S
N5432  Fe5499  2.139   .     S
C5437  C5439   1.360   .     S
C5437  N5443   1.360   .     D
C5437  H5445   0.950   .     S
C5438  C5439   1.360   .     S
C5438  N5444   1.360   .     D
C5438  H5446   0.950   .     S
C5439  C5440   1.500   .     D
C5440  C5442   1.390   .     S
C5440  C5477   1.390   .     S
C5441  C5442   1.390   .     D
C5441  H5447   0.950   .     S
C5441  C5476   1.390   .     S
C5442  H5448   0.950   .     S
N5443  N5444   1.360   .     S
N5443  Fe5598  2.091   .     S
N5444  Fe5600  2.139   .     S
C5449  C5451   1.360   .     S
C5449  N5455   1.360   .     D
C5449  H5457   0.950   .     S
C5450  N5456   1.360   .     D
C5450  H5458   0.950   .     S
C5451  C650    1.360   1_556 S
C5451  C5452   1.500   .     D
C5452  C5454   1.390   .     S
C5452  C617    1.390   1_556 S
C5453  C5454   1.390   .     D
C5453  H5459   0.950   .     S
C5453  C616    1.390   1_556 S
C5454  H5460   0.950   .     S
N5455  N656    1.360   1_556 S
N5455  Fe5899  2.091   .     S
N5456  Fe5497  2.139   .     S
C5461  C5463   1.360   .     S
C5461  N5467   1.360   .     D
C5461  H5469   0.950   .     S
C5462  N5468   1.360   .     D
C5462  H5470   0.950   .     S
C5463  C662    1.360   1_556 S
C5463  C5464   1.500   .     D
C5464  C5466   1.390   .     S
C5464  C605    1.390   1_556 S
C5465  C5466   1.390   .     D
C5465  H5471   0.950   .     S
C5465  C604    1.390   1_556 S
C5466  H5472   0.950   .     S
N5467  N668    1.360   1_556 S
N5467  Fe5600  2.091   .     S
N5468  Fe5598  2.139   .     S
C5473  C5475   1.360   .     S
C5473  N5479   1.360   .     D
C5473  H5481   0.950   .     S
C5474  C5475   1.360   .     S
C5474  N5480   1.360   .     D
C5474  H5482   0.950   .     S
C5475  C5476   1.500   .     D
C5476  C5478   1.390   .     S
C5477  C5478   1.390   .     D
C5477  H5483   0.950   .     S
C5478  H5484   0.950   .     S
N5479  N5480   1.360   .     S
N5479  Fe5899  2.091   .     S
N5480  Fe5497  2.139   .     S
C5485  C5487   1.360   .     S
C5485  N5491   1.360   .     D
C5485  H5493   0.950   .     S
C5486  C5487   1.360   .     S
C5486  N5492   1.360   .     D
C5486  H5494   0.950   .     S
C5487  C5488   1.500   .     D
C5488  C5490   1.390   .     S
C5489  C5490   1.390   .     D
C5489  H5495   0.950   .     S
C5490  H5496   0.950   .     S
N5491  N5492   1.360   .     S
N5491  Fe5500  2.091   .     S
N5492  Fe5498  2.139   .     S
Fe5497 N5807   2.091   .     S
Fe5497 N5831   2.091   .     S
C5501  C5503   1.360   .     S
C5501  N5507   1.360   .     D
C5501  H5509   0.950   .     S
C5502  C703    1.360   1_556 S
C5502  N5508   1.360   .     D
C5502  H5510   0.950   .     S
C5503  C5504   1.500   .     D
C5504  C5506   1.390   .     S
C5505  C5506   1.390   .     D
C5505  H5511   0.950   .     S
C5506  H5512   0.950   .     S
N5508  N707    1.360   1_556 S
N5508  Fe5599  2.139   .     S
C5513  C5515   1.360   .     S
C5513  N5519   1.360   .     D
C5513  H5521   0.950   .     S
C5514  C715    1.360   1_556 S
C5514  N5520   1.360   .     D
C5514  H5522   0.950   .     S
C5515  C5516   1.500   .     D
C5516  C5518   1.390   .     S
C5517  C5518   1.390   .     D
C5517  H5523   0.950   .     S
C5518  H5524   0.950   .     S
N5519  Fe5598  2.091   .     S
N5520  N719    1.360   1_556 S
N5520  Fe5600  2.139   .     S
C5525  C5527   1.360   .     S
C5525  N5531   1.360   .     D
C5525  H5533   0.950   .     S
C5526  C5527   1.360   .     S
C5526  N5532   1.360   .     D
C5526  H5534   0.950   .     S
C5527  C5528   1.500   .     D
C5528  C5530   1.390   .     S
C5528  C5589   1.390   .     S
C5529  C5530   1.390   .     D
C5529  H5535   0.950   .     S
C5529  C5588   1.390   .     S
C5530  H5536   0.950   .     S
N5531  N5532   1.360   .     S
N5532  Fe5599  2.139   .     S
C5537  C5539   1.360   .     S
C5537  N5543   1.360   .     D
C5537  H5545   0.950   .     S
C5538  C5539   1.360   .     S
C5538  N5544   1.360   .     D
C5538  H5546   0.950   .     S
C5539  C5540   1.500   .     D
C5540  C5542   1.390   .     S
C5540  C5577   1.390   .     S
C5541  C5542   1.390   .     D
C5541  H5547   0.950   .     S
C5541  C5576   1.390   .     S
C5542  H5548   0.950   .     S
N5543  N5544   1.360   .     S
N5543  Fe5298  2.091   1_655 S
N5544  Fe5300  2.139   1_655 S
C5549  C5551   1.360   .     S
C5549  N5555   1.360   .     D
C5549  H5557   0.950   .     S
C5550  N5556   1.360   .     D
C5550  H5558   0.950   .     S
C5551  C750    1.360   1_556 S
C5551  C5552   1.500   .     D
C5552  C5554   1.390   .     S
C5552  C717    1.390   1_556 S
C5553  C5554   1.390   .     D
C5553  H5559   0.950   .     S
C5553  C716    1.390   1_556 S
C5554  H5560   0.950   .     S
N5555  N756    1.360   1_556 S
N5555  Fe5999  2.091   .     S
N5556  Fe5597  2.139   .     S
C5561  C5563   1.360   .     S
C5561  N5567   1.360   .     D
C5561  H5569   0.950   .     S
C5562  N5568   1.360   .     D
C5562  H5570   0.950   .     S
C5563  C762    1.360   1_556 S
C5563  C5564   1.500   .     D
C5564  C5566   1.390   .     S
C5564  C705    1.390   1_556 S
C5565  C5566   1.390   .     D
C5565  H5571   0.950   .     S
C5565  C704    1.390   1_556 S
C5566  H5572   0.950   .     S
N5567  N768    1.360   1_556 S
N5567  Fe5300  2.091   1_655 S
N5568  Fe5298  2.139   1_655 S
C5573  C5575   1.360   .     S
C5573  N5579   1.360   .     D
C5573  H5581   0.950   .     S
C5574  C5575   1.360   .     S
C5574  N5580   1.360   .     D
C5574  H5582   0.950   .     S
C5575  C5576   1.500   .     D
C5576  C5578   1.390   .     S
C5577  C5578   1.390   .     D
C5577  H5583   0.950   .     S
C5578  H5584   0.950   .     S
N5579  N5580   1.360   .     S
N5579  Fe5999  2.091   .     S
N5580  Fe5597  2.139   .     S
C5585  C5587   1.360   .     S
C5585  N5591   1.360   .     D
C5585  H5593   0.950   .     S
C5586  C5587   1.360   .     S
C5586  N5592   1.360   .     D
C5586  H5594   0.950   .     S
C5587  C5588   1.500   .     D
C5588  C5590   1.390   .     S
C5589  C5590   1.390   .     D
C5589  H5595   0.950   .     S
C5590  H5596   0.950   .     S
N5591  N5592   1.360   .     S
N5591  Fe5600  2.091   .     S
N5592  Fe5598  2.139   .     S
Fe5597 N5907   2.091   .     S
Fe5597 N5931   2.091   .     S
C5601  C5603   1.360   .     S
C5601  N5607   1.360   .     D
C5601  H5609   0.950   .     S
C5602  C803    1.360   1_556 S
C5602  N5608   1.360   .     D
C5602  H5610   0.950   .     S
C5603  C5604   1.500   .     D
C5604  C5606   1.390   .     S
C5605  C5606   1.390   .     D
C5605  H5611   0.950   .     S
C5606  H5612   0.950   .     S
N5608  N807    1.360   1_556 S
N5608  Fe5699  2.139   .     S
C5613  C5615   1.360   .     S
C5613  N5619   1.360   .     D
C5613  H5621   0.950   .     S
C5614  C815    1.360   1_556 S
C5614  N5620   1.360   .     D
C5614  H5622   0.950   .     S
C5615  C5616   1.500   .     D
C5616  C5618   1.390   .     S
C5617  C5618   1.390   .     D
C5617  H5623   0.950   .     S
C5618  H5624   0.950   .     S
N5619  Fe5698  2.091   .     S
N5620  N819    1.360   1_556 S
N5620  Fe5700  2.139   .     S
C5625  C5627   1.360   .     S
C5625  N5631   1.360   .     D
C5625  H5633   0.950   .     S
C5626  C5627   1.360   .     S
C5626  N5632   1.360   .     D
C5626  H5634   0.950   .     S
C5627  C5628   1.500   .     D
C5628  C5630   1.390   .     S
C5628  C5689   1.390   .     S
C5629  C5630   1.390   .     D
C5629  H5635   0.950   .     S
C5629  C5688   1.390   .     S
C5630  H5636   0.950   .     S
N5631  N5632   1.360   .     S
N5632  Fe5699  2.139   .     S
C5637  C5639   1.360   .     S
C5637  N5643   1.360   .     D
C5637  H5645   0.950   .     S
C5638  C5639   1.360   .     S
C5638  N5644   1.360   .     D
C5638  H5646   0.950   .     S
C5639  C5640   1.500   .     D
C5640  C5642   1.390   .     S
C5640  C5677   1.390   .     S
C5641  C5642   1.390   .     D
C5641  H5647   0.950   .     S
C5641  C5676   1.390   .     S
C5642  H5648   0.950   .     S
N5643  N5644   1.360   .     S
N5643  Fe5798  2.091   .     S
N5644  Fe5800  2.139   .     S
C5649  C5651   1.360   .     S
C5649  N5655   1.360   .     D
C5649  H5657   0.950   .     S
C5650  N5656   1.360   .     D
C5650  H5658   0.950   .     S
C5651  C850    1.360   1_556 S
C5651  C5652   1.500   .     D
C5652  C5654   1.390   .     S
C5652  C817    1.390   1_556 S
C5653  C5654   1.390   .     D
C5653  H5659   0.950   .     S
C5653  C816    1.390   1_556 S
C5654  H5660   0.950   .     S
N5655  N856    1.360   1_556 S
N5655  Fe6099  2.091   .     S
N5656  Fe5697  2.139   .     S
C5661  C5663   1.360   .     S
C5661  N5667   1.360   .     D
C5661  H5669   0.950   .     S
C5662  N5668   1.360   .     D
C5662  H5670   0.950   .     S
C5663  C862    1.360   1_556 S
C5663  C5664   1.500   .     D
C5664  C5666   1.390   .     S
C5664  C805    1.390   1_556 S
C5665  C5666   1.390   .     D
C5665  H5671   0.950   .     S
C5665  C804    1.390   1_556 S
C5666  H5672   0.950   .     S
N5667  N868    1.360   1_556 S
N5667  Fe5800  2.091   .     S
N5668  Fe5798  2.139   .     S
C5673  C5675   1.360   .     S
C5673  N5679   1.360   .     D
C5673  H5681   0.950   .     S
C5674  C5675   1.360   .     S
C5674  N5680   1.360   .     D
C5674  H5682   0.950   .     S
C5675  C5676   1.500   .     D
C5676  C5678   1.390   .     S
C5677  C5678   1.390   .     D
C5677  H5683   0.950   .     S
C5678  H5684   0.950   .     S
N5679  N5680   1.360   .     S
N5679  Fe6099  2.091   .     S
N5680  Fe5697  2.139   .     S
C5685  C5687   1.360   .     S
C5685  N5691   1.360   .     D
C5685  H5693   0.950   .     S
C5686  C5687   1.360   .     S
C5686  N5692   1.360   .     D
C5686  H5694   0.950   .     S
C5687  C5688   1.500   .     D
C5688  C5690   1.390   .     S
C5689  C5690   1.390   .     D
C5689  H5695   0.950   .     S
C5690  H5696   0.950   .     S
N5691  N5692   1.360   .     S
N5691  Fe5700  2.091   .     S
N5692  Fe5698  2.139   .     S
Fe5697 N6007   2.091   .     S
Fe5697 N6031   2.091   .     S
Fe5698 N5943   2.091   1_455 S
Fe5698 N5968   2.139   1_455 S
Fe5700 N5967   2.091   1_455 S
Fe5700 N5944   2.139   1_455 S
C5701  C5703   1.360   .     S
C5701  N5707   1.360   .     D
C5701  H5709   0.950   .     S
C5702  C903    1.360   1_556 S
C5702  N5708   1.360   .     D
C5702  H5710   0.950   .     S
C5703  C5704   1.500   .     D
C5704  C5706   1.390   .     S
C5705  C5706   1.390   .     D
C5705  H5711   0.950   .     S
C5706  H5712   0.950   .     S
N5708  N907    1.360   1_556 S
N5708  Fe5799  2.139   .     S
C5713  C5715   1.360   .     S
C5713  N5719   1.360   .     D
C5713  H5721   0.950   .     S
C5714  C915    1.360   1_556 S
C5714  N5720   1.360   .     D
C5714  H5722   0.950   .     S
C5715  C5716   1.500   .     D
C5716  C5718   1.390   .     S
C5717  C5718   1.390   .     D
C5717  H5723   0.950   .     S
C5718  H5724   0.950   .     S
N5719  Fe5798  2.091   .     S
N5720  N919    1.360   1_556 S
N5720  Fe5800  2.139   .     S
C5725  C5727   1.360   .     S
C5725  N5731   1.360   .     D
C5725  H5733   0.950   .     S
C5726  C5727   1.360   .     S
C5726  N5732   1.360   .     D
C5726  H5734   0.950   .     S
C5727  C5728   1.500   .     D
C5728  C5730   1.390   .     S
C5728  C5789   1.390   .     S
C5729  C5730   1.390   .     D
C5729  H5735   0.950   .     S
C5729  C5788   1.390   .     S
C5730  H5736   0.950   .     S
N5731  N5732   1.360   .     S
N5732  Fe5799  2.139   .     S
C5737  C5739   1.360   .     S
C5737  N5743   1.360   .     D
C5737  H5745   0.950   .     S
C5738  C5739   1.360   .     S
C5738  N5744   1.360   .     D
C5738  H5746   0.950   .     S
C5739  C5740   1.500   .     D
C5740  C5742   1.390   .     S
C5740  C5777   1.390   .     S
C5741  C5742   1.390   .     D
C5741  H5747   0.950   .     S
C5741  C5776   1.390   .     S
C5742  H5748   0.950   .     S
N5743  N5744   1.360   .     S
N5743  Fe5898  2.091   .     S
N5744  Fe5900  2.139   .     S
C5749  C5751   1.360   .     S
C5749  N5755   1.360   .     D
C5749  H5757   0.950   .     S
C5750  N5756   1.360   .     D
C5750  H5758   0.950   .     S
C5751  C950    1.360   1_556 S
C5751  C5752   1.500   .     D
C5752  C5754   1.390   .     S
C5752  C917    1.390   1_556 S
C5753  C5754   1.390   .     D
C5753  H5759   0.950   .     S
C5753  C916    1.390   1_556 S
C5754  H5760   0.950   .     S
N5755  N956    1.360   1_556 S
N5755  Fe6199  2.091   .     S
N5756  Fe5797  2.139   .     S
C5761  C5763   1.360   .     S
C5761  N5767   1.360   .     D
C5761  H5769   0.950   .     S
C5762  N5768   1.360   .     D
C5762  H5770   0.950   .     S
C5763  C962    1.360   1_556 S
C5763  C5764   1.500   .     D
C5764  C5766   1.390   .     S
C5764  C905    1.390   1_556 S
C5765  C5766   1.390   .     D
C5765  H5771   0.950   .     S
C5765  C904    1.390   1_556 S
C5766  H5772   0.950   .     S
N5767  N968    1.360   1_556 S
N5767  Fe5900  2.091   .     S
N5768  Fe5898  2.139   .     S
C5773  C5775   1.360   .     S
C5773  N5779   1.360   .     D
C5773  H5781   0.950   .     S
C5774  C5775   1.360   .     S
C5774  N5780   1.360   .     D
C5774  H5782   0.950   .     S
C5775  C5776   1.500   .     D
C5776  C5778   1.390   .     S
C5777  C5778   1.390   .     D
C5777  H5783   0.950   .     S
C5778  H5784   0.950   .     S
N5779  N5780   1.360   .     S
N5779  Fe6199  2.091   .     S
N5780  Fe5797  2.139   .     S
C5785  C5787   1.360   .     S
C5785  N5791   1.360   .     D
C5785  H5793   0.950   .     S
C5786  C5787   1.360   .     S
C5786  N5792   1.360   .     D
C5786  H5794   0.950   .     S
C5787  C5788   1.500   .     D
C5788  C5790   1.390   .     S
C5789  C5790   1.390   .     D
C5789  H5795   0.950   .     S
C5790  H5796   0.950   .     S
N5791  N5792   1.360   .     S
N5791  Fe5800  2.091   .     S
N5792  Fe5798  2.139   .     S
Fe5797 N6107   2.091   .     S
Fe5797 N6131   2.091   .     S
C5801  C5803   1.360   .     S
C5801  N5807   1.360   .     D
C5801  H5809   0.950   .     S
C5802  C1003   1.360   1_556 S
C5802  N5808   1.360   .     D
C5802  H5810   0.950   .     S
C5803  C5804   1.500   .     D
C5804  C5806   1.390   .     S
C5805  C5806   1.390   .     D
C5805  H5811   0.950   .     S
C5806  H5812   0.950   .     S
N5808  N1007   1.360   1_556 S
N5808  Fe5899  2.139   .     S
C5813  C5815   1.360   .     S
C5813  N5819   1.360   .     D
C5813  H5821   0.950   .     S
C5814  C1015   1.360   1_556 S
C5814  N5820   1.360   .     D
C5814  H5822   0.950   .     S
C5815  C5816   1.500   .     D
C5816  C5818   1.390   .     S
C5817  C5818   1.390   .     D
C5817  H5823   0.950   .     S
C5818  H5824   0.950   .     S
N5819  Fe5898  2.091   .     S
N5820  N1019   1.360   1_556 S
N5820  Fe5900  2.139   .     S
C5825  C5827   1.360   .     S
C5825  N5831   1.360   .     D
C5825  H5833   0.950   .     S
C5826  C5827   1.360   .     S
C5826  N5832   1.360   .     D
C5826  H5834   0.950   .     S
C5827  C5828   1.500   .     D
C5828  C5830   1.390   .     S
C5828  C5889   1.390   .     S
C5829  C5830   1.390   .     D
C5829  H5835   0.950   .     S
C5829  C5888   1.390   .     S
C5830  H5836   0.950   .     S
N5831  N5832   1.360   .     S
N5832  Fe5899  2.139   .     S
C5837  C5839   1.360   .     S
C5837  N5843   1.360   .     D
C5837  H5845   0.950   .     S
C5838  C5839   1.360   .     S
C5838  N5844   1.360   .     D
C5838  H5846   0.950   .     S
C5839  C5840   1.500   .     D
C5840  C5842   1.390   .     S
C5840  C5877   1.390   .     S
C5841  C5842   1.390   .     D
C5841  H5847   0.950   .     S
C5841  C5876   1.390   .     S
C5842  H5848   0.950   .     S
N5843  N5844   1.360   .     S
N5843  Fe5998  2.091   .     S
N5844  Fe6000  2.139   .     S
C5849  C5851   1.360   .     S
C5849  N5855   1.360   .     D
C5849  H5857   0.950   .     S
C5850  N5856   1.360   .     D
C5850  H5858   0.950   .     S
C5851  C1050   1.360   1_556 S
C5851  C5852   1.500   .     D
C5852  C5854   1.390   .     S
C5852  C1017   1.390   1_556 S
C5853  C5854   1.390   .     D
C5853  H5859   0.950   .     S
C5853  C1016   1.390   1_556 S
C5854  H5860   0.950   .     S
N5855  N1056   1.360   1_556 S
N5855  Fe6299  2.091   .     S
N5856  Fe5897  2.139   .     S
C5861  C5863   1.360   .     S
C5861  N5867   1.360   .     D
C5861  H5869   0.950   .     S
C5862  N5868   1.360   .     D
C5862  H5870   0.950   .     S
C5863  C1062   1.360   1_556 S
C5863  C5864   1.500   .     D
C5864  C5866   1.390   .     S
C5864  C1005   1.390   1_556 S
C5865  C5866   1.390   .     D
C5865  H5871   0.950   .     S
C5865  C1004   1.390   1_556 S
C5866  H5872   0.950   .     S
N5867  N1068   1.360   1_556 S
N5867  Fe6000  2.091   .     S
N5868  Fe5998  2.139   .     S
C5873  C5875   1.360   .     S
C5873  N5879   1.360   .     D
C5873  H5881   0.950   .     S
C5874  C5875   1.360   .     S
C5874  N5880   1.360   .     D
C5874  H5882   0.950   .     S
C5875  C5876   1.500   .     D
C5876  C5878   1.390   .     S
C5877  C5878   1.390   .     D
C5877  H5883   0.950   .     S
C5878  H5884   0.950   .     S
N5879  N5880   1.360   .     S
N5879  Fe6299  2.091   .     S
N5880  Fe5897  2.139   .     S
C5885  C5887   1.360   .     S
C5885  N5891   1.360   .     D
C5885  H5893   0.950   .     S
C5886  C5887   1.360   .     S
C5886  N5892   1.360   .     D
C5886  H5894   0.950   .     S
C5887  C5888   1.500   .     D
C5888  C5890   1.390   .     S
C5889  C5890   1.390   .     D
C5889  H5895   0.950   .     S
C5890  H5896   0.950   .     S
N5891  N5892   1.360   .     S
N5891  Fe5900  2.091   .     S
N5892  Fe5898  2.139   .     S
Fe5897 N6207   2.091   .     S
Fe5897 N6231   2.091   .     S
C5901  C5903   1.360   .     S
C5901  N5907   1.360   .     D
C5901  H5909   0.950   .     S
C5902  C1103   1.360   1_556 S
C5902  N5908   1.360   .     D
C5902  H5910   0.950   .     S
C5903  C5904   1.500   .     D
C5904  C5906   1.390   .     S
C5905  C5906   1.390   .     D
C5905  H5911   0.950   .     S
C5906  H5912   0.950   .     S
N5908  N1107   1.360   1_556 S
N5908  Fe5999  2.139   .     S
C5913  C5915   1.360   .     S
C5913  N5919   1.360   .     D
C5913  H5921   0.950   .     S
C5914  C1115   1.360   1_556 S
C5914  N5920   1.360   .     D
C5914  H5922   0.950   .     S
C5915  C5916   1.500   .     D
C5916  C5918   1.390   .     S
C5917  C5918   1.390   .     D
C5917  H5923   0.950   .     S
C5918  H5924   0.950   .     S
N5919  Fe5998  2.091   .     S
N5920  N1119   1.360   1_556 S
N5920  Fe6000  2.139   .     S
C5925  C5927   1.360   .     S
C5925  N5931   1.360   .     D
C5925  H5933   0.950   .     S
C5926  C5927   1.360   .     S
C5926  N5932   1.360   .     D
C5926  H5934   0.950   .     S
C5927  C5928   1.500   .     D
C5928  C5930   1.390   .     S
C5928  C5989   1.390   .     S
C5929  C5930   1.390   .     D
C5929  H5935   0.950   .     S
C5929  C5988   1.390   .     S
C5930  H5936   0.950   .     S
N5931  N5932   1.360   .     S
N5932  Fe5999  2.139   .     S
C5937  C5939   1.360   .     S
C5937  N5943   1.360   .     D
C5937  H5945   0.950   .     S
C5938  C5939   1.360   .     S
C5938  N5944   1.360   .     D
C5938  H5946   0.950   .     S
C5939  C5940   1.500   .     D
C5940  C5942   1.390   .     S
C5940  C5977   1.390   .     S
C5941  C5942   1.390   .     D
C5941  H5947   0.950   .     S
C5941  C5976   1.390   .     S
C5942  H5948   0.950   .     S
N5943  N5944   1.360   .     S
N5943  Fe5698  2.091   1_655 S
N5944  Fe5700  2.139   1_655 S
C5949  C5951   1.360   .     S
C5949  N5955   1.360   .     D
C5949  H5957   0.950   .     S
C5950  N5956   1.360   .     D
C5950  H5958   0.950   .     S
C5951  C1150   1.360   1_556 S
C5951  C5952   1.500   .     D
C5952  C5954   1.390   .     S
C5952  C1117   1.390   1_556 S
C5953  C5954   1.390   .     D
C5953  H5959   0.950   .     S
C5953  C1116   1.390   1_556 S
C5954  H5960   0.950   .     S
N5955  N1156   1.360   1_556 S
N5955  Fe6399  2.091   .     S
N5956  Fe5997  2.139   .     S
C5961  C5963   1.360   .     S
C5961  N5967   1.360   .     D
C5961  H5969   0.950   .     S
C5962  N5968   1.360   .     D
C5962  H5970   0.950   .     S
C5963  C1162   1.360   1_556 S
C5963  C5964   1.500   .     D
C5964  C5966   1.390   .     S
C5964  C1105   1.390   1_556 S
C5965  C5966   1.390   .     D
C5965  H5971   0.950   .     S
C5965  C1104   1.390   1_556 S
C5966  H5972   0.950   .     S
N5967  N1168   1.360   1_556 S
N5967  Fe5700  2.091   1_655 S
N5968  Fe5698  2.139   1_655 S
C5973  C5975   1.360   .     S
C5973  N5979   1.360   .     D
C5973  H5981   0.950   .     S
C5974  C5975   1.360   .     S
C5974  N5980   1.360   .     D
C5974  H5982   0.950   .     S
C5975  C5976   1.500   .     D
C5976  C5978   1.390   .     S
C5977  C5978   1.390   .     D
C5977  H5983   0.950   .     S
C5978  H5984   0.950   .     S
N5979  N5980   1.360   .     S
N5979  Fe6399  2.091   .     S
N5980  Fe5997  2.139   .     S
C5985  C5987   1.360   .     S
C5985  N5991   1.360   .     D
C5985  H5993   0.950   .     S
C5986  C5987   1.360   .     S
C5986  N5992   1.360   .     D
C5986  H5994   0.950   .     S
C5987  C5988   1.500   .     D
C5988  C5990   1.390   .     S
C5989  C5990   1.390   .     D
C5989  H5995   0.950   .     S
C5990  H5996   0.950   .     S
N5991  N5992   1.360   .     S
N5991  Fe6000  2.091   .     S
N5992  Fe5998  2.139   .     S
Fe5997 N6307   2.091   .     S
Fe5997 N6331   2.091   .     S
C6001  C6003   1.360   .     S
C6001  N6007   1.360   .     D
C6001  H6009   0.950   .     S
C6002  C1203   1.360   1_556 S
C6002  N6008   1.360   .     D
C6002  H6010   0.950   .     S
C6003  C6004   1.500   .     D
C6004  C6006   1.390   .     S
C6005  C6006   1.390   .     D
C6005  H6011   0.950   .     S
C6006  H6012   0.950   .     S
N6008  N1207   1.360   1_556 S
N6008  Fe6099  2.139   .     S
C6013  C6015   1.360   .     S
C6013  N6019   1.360   .     D
C6013  H6021   0.950   .     S
C6014  C1215   1.360   1_556 S
C6014  N6020   1.360   .     D
C6014  H6022   0.950   .     S
C6015  C6016   1.500   .     D
C6016  C6018   1.390   .     S
C6017  C6018   1.390   .     D
C6017  H6023   0.950   .     S
C6018  H6024   0.950   .     S
N6019  Fe6098  2.091   .     S
N6020  N1219   1.360   1_556 S
N6020  Fe6100  2.139   .     S
C6025  C6027   1.360   .     S
C6025  N6031   1.360   .     D
C6025  H6033   0.950   .     S
C6026  C6027   1.360   .     S
C6026  N6032   1.360   .     D
C6026  H6034   0.950   .     S
C6027  C6028   1.500   .     D
C6028  C6030   1.390   .     S
C6028  C6089   1.390   .     S
C6029  C6030   1.390   .     D
C6029  H6035   0.950   .     S
C6029  C6088   1.390   .     S
C6030  H6036   0.950   .     S
N6031  N6032   1.360   .     S
N6032  Fe6099  2.139   .     S
C6037  C6039   1.360   .     S
C6037  N6043   1.360   .     D
C6037  H6045   0.950   .     S
C6038  C6039   1.360   .     S
C6038  N6044   1.360   .     D
C6038  H6046   0.950   .     S
C6039  C6040   1.500   .     D
C6040  C6042   1.390   .     S
C6040  C6077   1.390   .     S
C6041  C6042   1.390   .     D
C6041  H6047   0.950   .     S
C6041  C6076   1.390   .     S
C6042  H6048   0.950   .     S
N6043  N6044   1.360   .     S
N6043  Fe6198  2.091   .     S
N6044  Fe6200  2.139   .     S
C6049  C6051   1.360   .     S
C6049  N6055   1.360   .     D
C6049  H6057   0.950   .     S
C6050  N6056   1.360   .     D
C6050  H6058   0.950   .     S
C6051  C1250   1.360   1_556 S
C6051  C6052   1.500   .     D
C6052  C6054   1.390   .     S
C6052  C1217   1.390   1_556 S
C6053  C6054   1.390   .     D
C6053  H6059   0.950   .     S
C6053  C1216   1.390   1_556 S
C6054  H6060   0.950   .     S
N6055  N1256   1.360   1_556 S
N6055  Fe4899  2.091   1_565 S
N6056  Fe6097  2.139   .     S
C6061  C6063   1.360   .     S
C6061  N6067   1.360   .     D
C6061  H6069   0.950   .     S
C6062  N6068   1.360   .     D
C6062  H6070   0.950   .     S
C6063  C1262   1.360   1_556 S
C6063  C6064   1.500   .     D
C6064  C6066   1.390   .     S
C6064  C1205   1.390   1_556 S
C6065  C6066   1.390   .     D
C6065  H6071   0.950   .     S
C6065  C1204   1.390   1_556 S
C6066  H6072   0.950   .     S
N6067  N1268   1.360   1_556 S
N6067  Fe6200  2.091   .     S
N6068  Fe6198  2.139   .     S
C6073  C6075   1.360   .     S
C6073  N6079   1.360   .     D
C6073  H6081   0.950   .     S
C6074  C6075   1.360   .     S
C6074  N6080   1.360   .     D
C6074  H6082   0.950   .     S
C6075  C6076   1.500   .     D
C6076  C6078   1.390   .     S
C6077  C6078   1.390   .     D
C6077  H6083   0.950   .     S
C6078  H6084   0.950   .     S
N6079  N6080   1.360   .     S
N6079  Fe4899  2.091   1_565 S
N6080  Fe6097  2.139   .     S
C6085  C6087   1.360   .     S
C6085  N6091   1.360   .     D
C6085  H6093   0.950   .     S
C6086  C6087   1.360   .     S
C6086  N6092   1.360   .     D
C6086  H6094   0.950   .     S
C6087  C6088   1.500   .     D
C6088  C6090   1.390   .     S
C6089  C6090   1.390   .     D
C6089  H6095   0.950   .     S
C6090  H6096   0.950   .     S
N6091  N6092   1.360   .     S
N6091  Fe6100  2.091   .     S
N6092  Fe6098  2.139   .     S
Fe6097 N4807   2.091   1_565 S
Fe6097 N4831   2.091   1_565 S
Fe6098 N6343   2.091   1_455 S
Fe6098 N6368   2.139   1_455 S
Fe6100 N6367   2.091   1_455 S
Fe6100 N6344   2.139   1_455 S
C6101  C6103   1.360   .     S
C6101  N6107   1.360   .     D
C6101  H6109   0.950   .     S
C6102  C1303   1.360   1_556 S
C6102  N6108   1.360   .     D
C6102  H6110   0.950   .     S
C6103  C6104   1.500   .     D
C6104  C6106   1.390   .     S
C6105  C6106   1.390   .     D
C6105  H6111   0.950   .     S
C6106  H6112   0.950   .     S
N6108  N1307   1.360   1_556 S
N6108  Fe6199  2.139   .     S
C6113  C6115   1.360   .     S
C6113  N6119   1.360   .     D
C6113  H6121   0.950   .     S
C6114  C1315   1.360   1_556 S
C6114  N6120   1.360   .     D
C6114  H6122   0.950   .     S
C6115  C6116   1.500   .     D
C6116  C6118   1.390   .     S
C6117  C6118   1.390   .     D
C6117  H6123   0.950   .     S
C6118  H6124   0.950   .     S
N6119  Fe6198  2.091   .     S
N6120  N1319   1.360   1_556 S
N6120  Fe6200  2.139   .     S
C6125  C6127   1.360   .     S
C6125  N6131   1.360   .     D
C6125  H6133   0.950   .     S
C6126  C6127   1.360   .     S
C6126  N6132   1.360   .     D
C6126  H6134   0.950   .     S
C6127  C6128   1.500   .     D
C6128  C6130   1.390   .     S
C6128  C6189   1.390   .     S
C6129  C6130   1.390   .     D
C6129  H6135   0.950   .     S
C6129  C6188   1.390   .     S
C6130  H6136   0.950   .     S
N6131  N6132   1.360   .     S
N6132  Fe6199  2.139   .     S
C6137  C6139   1.360   .     S
C6137  N6143   1.360   .     D
C6137  H6145   0.950   .     S
C6138  C6139   1.360   .     S
C6138  N6144   1.360   .     D
C6138  H6146   0.950   .     S
C6139  C6140   1.500   .     D
C6140  C6142   1.390   .     S
C6140  C6177   1.390   .     S
C6141  C6142   1.390   .     D
C6141  H6147   0.950   .     S
C6141  C6176   1.390   .     S
C6142  H6148   0.950   .     S
N6143  N6144   1.360   .     S
N6143  Fe6298  2.091   .     S
N6144  Fe6300  2.139   .     S
C6149  C6151   1.360   .     S
C6149  N6155   1.360   .     D
C6149  H6157   0.950   .     S
C6150  N6156   1.360   .     D
C6150  H6158   0.950   .     S
C6151  C1350   1.360   1_556 S
C6151  C6152   1.500   .     D
C6152  C6154   1.390   .     S
C6152  C1317   1.390   1_556 S
C6153  C6154   1.390   .     D
C6153  H6159   0.950   .     S
C6153  C1316   1.390   1_556 S
C6154  H6160   0.950   .     S
N6155  N1356   1.360   1_556 S
N6155  Fe4999  2.091   1_565 S
N6156  Fe6197  2.139   .     S
C6161  C6163   1.360   .     S
C6161  N6167   1.360   .     D
C6161  H6169   0.950   .     S
C6162  N6168   1.360   .     D
C6162  H6170   0.950   .     S
C6163  C1362   1.360   1_556 S
C6163  C6164   1.500   .     D
C6164  C6166   1.390   .     S
C6164  C1305   1.390   1_556 S
C6165  C6166   1.390   .     D
C6165  H6171   0.950   .     S
C6165  C1304   1.390   1_556 S
C6166  H6172   0.950   .     S
N6167  N1368   1.360   1_556 S
N6167  Fe6300  2.091   .     S
N6168  Fe6298  2.139   .     S
C6173  C6175   1.360   .     S
C6173  N6179   1.360   .     D
C6173  H6181   0.950   .     S
C6174  C6175   1.360   .     S
C6174  N6180   1.360   .     D
C6174  H6182   0.950   .     S
C6175  C6176   1.500   .     D
C6176  C6178   1.390   .     S
C6177  C6178   1.390   .     D
C6177  H6183   0.950   .     S
C6178  H6184   0.950   .     S
N6179  N6180   1.360   .     S
N6179  Fe4999  2.091   1_565 S
N6180  Fe6197  2.139   .     S
C6185  C6187   1.360   .     S
C6185  N6191   1.360   .     D
C6185  H6193   0.950   .     S
C6186  C6187   1.360   .     S
C6186  N6192   1.360   .     D
C6186  H6194   0.950   .     S
C6187  C6188   1.500   .     D
C6188  C6190   1.390   .     S
C6189  C6190   1.390   .     D
C6189  H6195   0.950   .     S
C6190  H6196   0.950   .     S
N6191  N6192   1.360   .     S
N6191  Fe6200  2.091   .     S
N6192  Fe6198  2.139   .     S
Fe6197 N4907   2.091   1_565 S
Fe6197 N4931   2.091   1_565 S
C6201  C6203   1.360   .     S
C6201  N6207   1.360   .     D
C6201  H6209   0.950   .     S
C6202  C1403   1.360   1_556 S
C6202  N6208   1.360   .     D
C6202  H6210   0.950   .     S
C6203  C6204   1.500   .     D
C6204  C6206   1.390   .     S
C6205  C6206   1.390   .     D
C6205  H6211   0.950   .     S
C6206  H6212   0.950   .     S
N6208  N1407   1.360   1_556 S
N6208  Fe6299  2.139   .     S
C6213  C6215   1.360   .     S
C6213  N6219   1.360   .     D
C6213  H6221   0.950   .     S
C6214  C1415   1.360   1_556 S
C6214  N6220   1.360   .     D
C6214  H6222   0.950   .     S
C6215  C6216   1.500   .     D
C6216  C6218   1.390   .     S
C6217  C6218   1.390   .     D
C6217  H6223   0.950   .     S
C6218  H6224   0.950   .     S
N6219  Fe6298  2.091   .     S
N6220  N1419   1.360   1_556 S
N6220  Fe6300  2.139   .     S
C6225  C6227   1.360   .     S
C6225  N6231   1.360   .     D
C6225  H6233   0.950   .     S
C6226  C6227   1.360   .     S
C6226  N6232   1.360   .     D
C6226  H6234   0.950   .     S
C6227  C6228   1.500   .     D
C6228  C6230   1.390   .     S
C6228  C6289   1.390   .     S
C6229  C6230   1.390   .     D
C6229  H6235   0.950   .     S
C6229  C6288   1.390   .     S
C6230  H6236   0.950   .     S
N6231  N6232   1.360   .     S
N6232  Fe6299  2.139   .     S
C6237  C6239   1.360   .     S
C6237  N6243   1.360   .     D
C6237  H6245   0.950   .     S
C6238  C6239   1.360   .     S
C6238  N6244   1.360   .     D
C6238  H6246   0.950   .     S
C6239  C6240   1.500   .     D
C6240  C6242   1.390   .     S
C6240  C6277   1.390   .     S
C6241  C6242   1.390   .     D
C6241  H6247   0.950   .     S
C6241  C6276   1.390   .     S
C6242  H6248   0.950   .     S
N6243  N6244   1.360   .     S
N6243  Fe6398  2.091   .     S
N6244  Fe6400  2.139   .     S
C6249  C6251   1.360   .     S
C6249  N6255   1.360   .     D
C6249  H6257   0.950   .     S
C6250  N6256   1.360   .     D
C6250  H6258   0.950   .     S
C6251  C1450   1.360   1_556 S
C6251  C6252   1.500   .     D
C6252  C6254   1.390   .     S
C6252  C1417   1.390   1_556 S
C6253  C6254   1.390   .     D
C6253  H6259   0.950   .     S
C6253  C1416   1.390   1_556 S
C6254  H6260   0.950   .     S
N6255  N1456   1.360   1_556 S
N6255  Fe5099  2.091   1_565 S
N6256  Fe6297  2.139   .     S
C6261  C6263   1.360   .     S
C6261  N6267   1.360   .     D
C6261  H6269   0.950   .     S
C6262  N6268   1.360   .     D
C6262  H6270   0.950   .     S
C6263  C1462   1.360   1_556 S
C6263  C6264   1.500   .     D
C6264  C6266   1.390   .     S
C6264  C1405   1.390   1_556 S
C6265  C6266   1.390   .     D
C6265  H6271   0.950   .     S
C6265  C1404   1.390   1_556 S
C6266  H6272   0.950   .     S
N6267  N1468   1.360   1_556 S
N6267  Fe6400  2.091   .     S
N6268  Fe6398  2.139   .     S
C6273  C6275   1.360   .     S
C6273  N6279   1.360   .     D
C6273  H6281   0.950   .     S
C6274  C6275   1.360   .     S
C6274  N6280   1.360   .     D
C6274  H6282   0.950   .     S
C6275  C6276   1.500   .     D
C6276  C6278   1.390   .     S
C6277  C6278   1.390   .     D
C6277  H6283   0.950   .     S
C6278  H6284   0.950   .     S
N6279  N6280   1.360   .     S
N6279  Fe5099  2.091   1_565 S
N6280  Fe6297  2.139   .     S
C6285  C6287   1.360   .     S
C6285  N6291   1.360   .     D
C6285  H6293   0.950   .     S
C6286  C6287   1.360   .     S
C6286  N6292   1.360   .     D
C6286  H6294   0.950   .     S
C6287  C6288   1.500   .     D
C6288  C6290   1.390   .     S
C6289  C6290   1.390   .     D
C6289  H6295   0.950   .     S
C6290  H6296   0.950   .     S
N6291  N6292   1.360   .     S
N6291  Fe6300  2.091   .     S
N6292  Fe6298  2.139   .     S
Fe6297 N5007   2.091   1_565 S
Fe6297 N5031   2.091   1_565 S
C6301  C6303   1.360   .     S
C6301  N6307   1.360   .     D
C6301  H6309   0.950   .     S
C6302  C1503   1.360   1_556 S
C6302  N6308   1.360   .     D
C6302  H6310   0.950   .     S
C6303  C6304   1.500   .     D
C6304  C6306   1.390   .     S
C6305  C6306   1.390   .     D
C6305  H6311   0.950   .     S
C6306  H6312   0.950   .     S
N6308  N1507   1.360   1_556 S
N6308  Fe6399  2.139   .     S
C6313  C6315   1.360   .     S
C6313  N6319   1.360   .     D
C6313  H6321   0.950   .     S
C6314  C1515   1.360   1_556 S
C6314  N6320   1.360   .     D
C6314  H6322   0.950   .     S
C6315  C6316   1.500   .     D
C6316  C6318   1.390   .     S
C6317  C6318   1.390   .     D
C6317  H6323   0.950   .     S
C6318  H6324   0.950   .     S
N6319  Fe6398  2.091   .     S
N6320  N1519   1.360   1_556 S
N6320  Fe6400  2.139   .     S
C6325  C6327   1.360   .     S
C6325  N6331   1.360   .     D
C6325  H6333   0.950   .     S
C6326  C6327   1.360   .     S
C6326  N6332   1.360   .     D
C6326  H6334   0.950   .     S
C6327  C6328   1.500   .     D
C6328  C6330   1.390   .     S
C6328  C6389   1.390   .     S
C6329  C6330   1.390   .     D
C6329  H6335   0.950   .     S
C6329  C6388   1.390   .     S
C6330  H6336   0.950   .     S
N6331  N6332   1.360   .     S
N6332  Fe6399  2.139   .     S
C6337  C6339   1.360   .     S
C6337  N6343   1.360   .     D
C6337  H6345   0.950   .     S
C6338  C6339   1.360   .     S
C6338  N6344   1.360   .     D
C6338  H6346   0.950   .     S
C6339  C6340   1.500   .     D
C6340  C6342   1.390   .     S
C6340  C6377   1.390   .     S
C6341  C6342   1.390   .     D
C6341  H6347   0.950   .     S
C6341  C6376   1.390   .     S
C6342  H6348   0.950   .     S
N6343  N6344   1.360   .     S
N6343  Fe6098  2.091   1_655 S
N6344  Fe6100  2.139   1_655 S
C6349  C6351   1.360   .     S
C6349  N6355   1.360   .     D
C6349  H6357   0.950   .     S
C6350  N6356   1.360   .     D
C6350  H6358   0.950   .     S
C6351  C1550   1.360   1_556 S
C6351  C6352   1.500   .     D
C6352  C6354   1.390   .     S
C6352  C1517   1.390   1_556 S
C6353  C6354   1.390   .     D
C6353  H6359   0.950   .     S
C6353  C1516   1.390   1_556 S
C6354  H6360   0.950   .     S
N6355  N1556   1.360   1_556 S
N6355  Fe5199  2.091   1_565 S
N6356  Fe6397  2.139   .     S
C6361  C6363   1.360   .     S
C6361  N6367   1.360   .     D
C6361  H6369   0.950   .     S
C6362  N6368   1.360   .     D
C6362  H6370   0.950   .     S
C6363  C1562   1.360   1_556 S
C6363  C6364   1.500   .     D
C6364  C6366   1.390   .     S
C6364  C1505   1.390   1_556 S
C6365  C6366   1.390   .     D
C6365  H6371   0.950   .     S
C6365  C1504   1.390   1_556 S
C6366  H6372   0.950   .     S
N6367  N1568   1.360   1_556 S
N6367  Fe6100  2.091   1_655 S
N6368  Fe6098  2.139   1_655 S
C6373  C6375   1.360   .     S
C6373  N6379   1.360   .     D
C6373  H6381   0.950   .     S
C6374  C6375   1.360   .     S
C6374  N6380   1.360   .     D
C6374  H6382   0.950   .     S
C6375  C6376   1.500   .     D
C6376  C6378   1.390   .     S
C6377  C6378   1.390   .     D
C6377  H6383   0.950   .     S
C6378  H6384   0.950   .     S
N6379  N6380   1.360   .     S
N6379  Fe5199  2.091   1_565 S
N6380  Fe6397  2.139   .     S
C6385  C6387   1.360   .     S
C6385  N6391   1.360   .     D
C6385  H6393   0.950   .     S
C6386  C6387   1.360   .     S
C6386  N6392   1.360   .     D
C6386  H6394   0.950   .     S
C6387  C6388   1.500   .     D
C6388  C6390   1.390   .     S
C6389  C6390   1.390   .     D
C6389  H6395   0.950   .     S
C6390  H6396   0.950   .     S
N6391  N6392   1.360   .     S
N6391  Fe6400  2.091   .     S
N6392  Fe6398  2.139   .     S
Fe6397 N5107   2.091   1_565 S
Fe6397 N5131   2.091   1_565 S
