data_SABVUN_4-4-4
_audit_creation_date              2020-05-22
_audit_creation_method            'Materials Studio'
_symmetry_space_group_name_H-M    'P1'
_symmetry_Int_Tables_number       1
_symmetry_cell_setting            triclinic
loop_
_symmetry_equiv_pos_as_xyz
  x,y,z
_cell_length_a                    26.4340
_cell_length_b                    66.7000
_cell_length_c                    51.2520
_cell_angle_alpha                 90.0000
_cell_angle_beta                  90.0000
_cell_angle_gamma                 90.0000
loop_
_atom_site_label
_atom_site_type_symbol
_atom_site_fract_x
_atom_site_fract_y
_atom_site_fract_z
_atom_site_U_iso_or_equiv
_atom_site_adp_type
_atom_site_occupancy
O1     O     0.03900   0.04175   0.21043   0.00000  Uiso   1.00
C2     C     0.20200   0.00905   0.24350   0.00000  Uiso   1.00
O3     O     0.16400   0.16675   0.08543   0.00000  Uiso   1.00
C4     C     0.07700   0.13405   0.11850   0.00000  Uiso   1.00
O5     O     0.21100   0.08325   0.21043   0.00000  Uiso   1.00
C6     C     0.04800   0.11595   0.24350   0.00000  Uiso   1.00
O7     O     0.08600   0.20825   0.08543   0.00000  Uiso   1.00
C8     C     0.17300   0.24095   0.11850   0.00000  Uiso   1.00
O9     O     0.21100   0.16675   0.03957   0.00000  Uiso   1.00
C10    C     0.04800   0.13405   0.00650   0.00000  Uiso   1.00
O11    O     0.08600   0.04175   0.16457   0.00000  Uiso   1.00
C12    C     0.17300   0.00905   0.13150   0.00000  Uiso   1.00
O13    O     0.03900   0.20825   0.03957   0.00000  Uiso   1.00
C14    C     0.20200   0.24095   0.00650   0.00000  Uiso   1.00
O15    O     0.16400   0.08325   0.16457   0.00000  Uiso   1.00
C16    C     0.07700   0.11595   0.13150   0.00000  Uiso   1.00
O17    O     0.21100   0.20825   0.03957   0.00000  Uiso   1.00
C18    C     0.04800   0.24095   0.00650   0.00000  Uiso   1.00
O19    O     0.08600   0.08325   0.16457   0.00000  Uiso   1.00
C20    C     0.17300   0.11595   0.13150   0.00000  Uiso   1.00
O21    O     0.03900   0.16675   0.03957   0.00000  Uiso   1.00
C22    C     0.20200   0.13405   0.00650   0.00000  Uiso   1.00
O23    O     0.16400   0.04175   0.16457   0.00000  Uiso   1.00
C24    C     0.07700   0.00905   0.13150   0.00000  Uiso   1.00
O25    O     0.03900   0.08325   0.21043   0.00000  Uiso   1.00
C26    C     0.20200   0.11595   0.24350   0.00000  Uiso   1.00
O27    O     0.16400   0.20825   0.08543   0.00000  Uiso   1.00
C28    C     0.07700   0.24095   0.11850   0.00000  Uiso   1.00
O29    O     0.21100   0.04175   0.21043   0.00000  Uiso   1.00
C30    C     0.04800   0.00905   0.24350   0.00000  Uiso   1.00
O31    O     0.08600   0.16675   0.08543   0.00000  Uiso   1.00
C32    C     0.17300   0.13405   0.11850   0.00000  Uiso   1.00
Al33   Al    0.06250   0.06250   0.18750   0.00000  Uiso   1.00
Al34   Al    0.18750   0.06250   0.18750   0.00000  Uiso   1.00
Al35   Al    0.18750   0.18750   0.06250   0.00000  Uiso   1.00
Al36   Al    0.06250   0.18750   0.06250   0.00000  Uiso   1.00
O37    O     0.00000   0.06250   0.17325   0.00000  Uiso   1.00
O38    O     0.12500   0.18750   0.04825   0.00000  Uiso   1.00
O39    O     0.00000   0.18750   0.07675   0.00000  Uiso   1.00
O40    O     0.12500   0.06250   0.20175   0.00000  Uiso   1.00
C41    C     0.00000   0.01500   0.23925   0.00000  Uiso   1.00
C42    C     0.00000   0.03230   0.22075   0.00000  Uiso   1.00
C43    C     0.12500   0.14000   0.11425   0.00000  Uiso   1.00
C44    C     0.12500   0.15730   0.09575   0.00000  Uiso   1.00
C45    C     0.00000   0.11000   0.23925   0.00000  Uiso   1.00
C46    C     0.00000   0.09270   0.22075   0.00000  Uiso   1.00
C47    C     0.12500   0.23500   0.11425   0.00000  Uiso   1.00
C48    C     0.12500   0.21770   0.09575   0.00000  Uiso   1.00
C49    C     0.00000   0.14000   0.01075   0.00000  Uiso   1.00
C50    C     0.00000   0.15730   0.02925   0.00000  Uiso   1.00
C51    C     0.12500   0.01500   0.13575   0.00000  Uiso   1.00
C52    C     0.12500   0.03230   0.15425   0.00000  Uiso   1.00
C53    C     0.00000   0.23500   0.01075   0.00000  Uiso   1.00
C54    C     0.00000   0.21770   0.02925   0.00000  Uiso   1.00
C55    C     0.12500   0.11000   0.13575   0.00000  Uiso   1.00
C56    C     0.12500   0.09270   0.15425   0.00000  Uiso   1.00
O57    O     0.28900   0.04175   0.21043   0.00000  Uiso   1.00
C58    C     0.45200   0.00905   0.24350   0.00000  Uiso   1.00
O59    O     0.41400   0.16675   0.08543   0.00000  Uiso   1.00
C60    C     0.32700   0.13405   0.11850   0.00000  Uiso   1.00
O61    O     0.46100   0.08325   0.21043   0.00000  Uiso   1.00
C62    C     0.29800   0.11595   0.24350   0.00000  Uiso   1.00
O63    O     0.33600   0.20825   0.08543   0.00000  Uiso   1.00
C64    C     0.42300   0.24095   0.11850   0.00000  Uiso   1.00
O65    O     0.46100   0.16675   0.03957   0.00000  Uiso   1.00
C66    C     0.29800   0.13405   0.00650   0.00000  Uiso   1.00
O67    O     0.33600   0.04175   0.16457   0.00000  Uiso   1.00
C68    C     0.42300   0.00905   0.13150   0.00000  Uiso   1.00
O69    O     0.28900   0.20825   0.03957   0.00000  Uiso   1.00
C70    C     0.45200   0.24095   0.00650   0.00000  Uiso   1.00
O71    O     0.41400   0.08325   0.16457   0.00000  Uiso   1.00
C72    C     0.32700   0.11595   0.13150   0.00000  Uiso   1.00
O73    O     0.46100   0.20825   0.03957   0.00000  Uiso   1.00
C74    C     0.29800   0.24095   0.00650   0.00000  Uiso   1.00
O75    O     0.33600   0.08325   0.16457   0.00000  Uiso   1.00
C76    C     0.42300   0.11595   0.13150   0.00000  Uiso   1.00
O77    O     0.28900   0.16675   0.03957   0.00000  Uiso   1.00
C78    C     0.45200   0.13405   0.00650   0.00000  Uiso   1.00
O79    O     0.41400   0.04175   0.16457   0.00000  Uiso   1.00
C80    C     0.32700   0.00905   0.13150   0.00000  Uiso   1.00
O81    O     0.28900   0.08325   0.21043   0.00000  Uiso   1.00
C82    C     0.45200   0.11595   0.24350   0.00000  Uiso   1.00
O83    O     0.41400   0.20825   0.08543   0.00000  Uiso   1.00
C84    C     0.32700   0.24095   0.11850   0.00000  Uiso   1.00
O85    O     0.46100   0.04175   0.21043   0.00000  Uiso   1.00
C86    C     0.29800   0.00905   0.24350   0.00000  Uiso   1.00
O87    O     0.33600   0.16675   0.08543   0.00000  Uiso   1.00
C88    C     0.42300   0.13405   0.11850   0.00000  Uiso   1.00
Al89   Al    0.31250   0.06250   0.18750   0.00000  Uiso   1.00
Al90   Al    0.43750   0.06250   0.18750   0.00000  Uiso   1.00
Al91   Al    0.43750   0.18750   0.06250   0.00000  Uiso   1.00
Al92   Al    0.31250   0.18750   0.06250   0.00000  Uiso   1.00
O93    O     0.25000   0.06250   0.17325   0.00000  Uiso   1.00
O94    O     0.37500   0.18750   0.04825   0.00000  Uiso   1.00
O95    O     0.25000   0.18750   0.07675   0.00000  Uiso   1.00
O96    O     0.37500   0.06250   0.20175   0.00000  Uiso   1.00
C97    C     0.25000   0.01500   0.23925   0.00000  Uiso   1.00
C98    C     0.25000   0.03230   0.22075   0.00000  Uiso   1.00
C99    C     0.37500   0.14000   0.11425   0.00000  Uiso   1.00
C100   C     0.37500   0.15730   0.09575   0.00000  Uiso   1.00
C101   C     0.25000   0.11000   0.23925   0.00000  Uiso   1.00
C102   C     0.25000   0.09270   0.22075   0.00000  Uiso   1.00
C103   C     0.37500   0.23500   0.11425   0.00000  Uiso   1.00
C104   C     0.37500   0.21770   0.09575   0.00000  Uiso   1.00
C105   C     0.25000   0.14000   0.01075   0.00000  Uiso   1.00
C106   C     0.25000   0.15730   0.02925   0.00000  Uiso   1.00
C107   C     0.37500   0.01500   0.13575   0.00000  Uiso   1.00
C108   C     0.37500   0.03230   0.15425   0.00000  Uiso   1.00
C109   C     0.25000   0.23500   0.01075   0.00000  Uiso   1.00
C110   C     0.25000   0.21770   0.02925   0.00000  Uiso   1.00
C111   C     0.37500   0.11000   0.13575   0.00000  Uiso   1.00
C112   C     0.37500   0.09270   0.15425   0.00000  Uiso   1.00
O113   O     0.53900   0.04175   0.21043   0.00000  Uiso   1.00
C114   C     0.70200   0.00905   0.24350   0.00000  Uiso   1.00
O115   O     0.66400   0.16675   0.08543   0.00000  Uiso   1.00
C116   C     0.57700   0.13405   0.11850   0.00000  Uiso   1.00
O117   O     0.71100   0.08325   0.21043   0.00000  Uiso   1.00
C118   C     0.54800   0.11595   0.24350   0.00000  Uiso   1.00
O119   O     0.58600   0.20825   0.08543   0.00000  Uiso   1.00
C120   C     0.67300   0.24095   0.11850   0.00000  Uiso   1.00
O121   O     0.71100   0.16675   0.03957   0.00000  Uiso   1.00
C122   C     0.54800   0.13405   0.00650   0.00000  Uiso   1.00
O123   O     0.58600   0.04175   0.16457   0.00000  Uiso   1.00
C124   C     0.67300   0.00905   0.13150   0.00000  Uiso   1.00
O125   O     0.53900   0.20825   0.03957   0.00000  Uiso   1.00
C126   C     0.70200   0.24095   0.00650   0.00000  Uiso   1.00
O127   O     0.66400   0.08325   0.16457   0.00000  Uiso   1.00
C128   C     0.57700   0.11595   0.13150   0.00000  Uiso   1.00
O129   O     0.71100   0.20825   0.03957   0.00000  Uiso   1.00
C130   C     0.54800   0.24095   0.00650   0.00000  Uiso   1.00
O131   O     0.58600   0.08325   0.16457   0.00000  Uiso   1.00
C132   C     0.67300   0.11595   0.13150   0.00000  Uiso   1.00
O133   O     0.53900   0.16675   0.03957   0.00000  Uiso   1.00
C134   C     0.70200   0.13405   0.00650   0.00000  Uiso   1.00
O135   O     0.66400   0.04175   0.16457   0.00000  Uiso   1.00
C136   C     0.57700   0.00905   0.13150   0.00000  Uiso   1.00
O137   O     0.53900   0.08325   0.21043   0.00000  Uiso   1.00
C138   C     0.70200   0.11595   0.24350   0.00000  Uiso   1.00
O139   O     0.66400   0.20825   0.08543   0.00000  Uiso   1.00
C140   C     0.57700   0.24095   0.11850   0.00000  Uiso   1.00
O141   O     0.71100   0.04175   0.21043   0.00000  Uiso   1.00
C142   C     0.54800   0.00905   0.24350   0.00000  Uiso   1.00
O143   O     0.58600   0.16675   0.08543   0.00000  Uiso   1.00
C144   C     0.67300   0.13405   0.11850   0.00000  Uiso   1.00
Al145  Al    0.56250   0.06250   0.18750   0.00000  Uiso   1.00
Al146  Al    0.68750   0.06250   0.18750   0.00000  Uiso   1.00
Al147  Al    0.68750   0.18750   0.06250   0.00000  Uiso   1.00
Al148  Al    0.56250   0.18750   0.06250   0.00000  Uiso   1.00
O149   O     0.50000   0.06250   0.17325   0.00000  Uiso   1.00
O150   O     0.62500   0.18750   0.04825   0.00000  Uiso   1.00
O151   O     0.50000   0.18750   0.07675   0.00000  Uiso   1.00
O152   O     0.62500   0.06250   0.20175   0.00000  Uiso   1.00
C153   C     0.50000   0.01500   0.23925   0.00000  Uiso   1.00
C154   C     0.50000   0.03230   0.22075   0.00000  Uiso   1.00
C155   C     0.62500   0.14000   0.11425   0.00000  Uiso   1.00
C156   C     0.62500   0.15730   0.09575   0.00000  Uiso   1.00
C157   C     0.50000   0.11000   0.23925   0.00000  Uiso   1.00
C158   C     0.50000   0.09270   0.22075   0.00000  Uiso   1.00
C159   C     0.62500   0.23500   0.11425   0.00000  Uiso   1.00
C160   C     0.62500   0.21770   0.09575   0.00000  Uiso   1.00
C161   C     0.50000   0.14000   0.01075   0.00000  Uiso   1.00
C162   C     0.50000   0.15730   0.02925   0.00000  Uiso   1.00
C163   C     0.62500   0.01500   0.13575   0.00000  Uiso   1.00
C164   C     0.62500   0.03230   0.15425   0.00000  Uiso   1.00
C165   C     0.50000   0.23500   0.01075   0.00000  Uiso   1.00
C166   C     0.50000   0.21770   0.02925   0.00000  Uiso   1.00
C167   C     0.62500   0.11000   0.13575   0.00000  Uiso   1.00
C168   C     0.62500   0.09270   0.15425   0.00000  Uiso   1.00
O169   O     0.78900   0.04175   0.21043   0.00000  Uiso   1.00
C170   C     0.95200   0.00905   0.24350   0.00000  Uiso   1.00
O171   O     0.91400   0.16675   0.08543   0.00000  Uiso   1.00
C172   C     0.82700   0.13405   0.11850   0.00000  Uiso   1.00
O173   O     0.96100   0.08325   0.21043   0.00000  Uiso   1.00
C174   C     0.79800   0.11595   0.24350   0.00000  Uiso   1.00
O175   O     0.83600   0.20825   0.08543   0.00000  Uiso   1.00
C176   C     0.92300   0.24095   0.11850   0.00000  Uiso   1.00
O177   O     0.96100   0.16675   0.03957   0.00000  Uiso   1.00
C178   C     0.79800   0.13405   0.00650   0.00000  Uiso   1.00
O179   O     0.83600   0.04175   0.16457   0.00000  Uiso   1.00
C180   C     0.92300   0.00905   0.13150   0.00000  Uiso   1.00
O181   O     0.78900   0.20825   0.03957   0.00000  Uiso   1.00
C182   C     0.95200   0.24095   0.00650   0.00000  Uiso   1.00
O183   O     0.91400   0.08325   0.16457   0.00000  Uiso   1.00
C184   C     0.82700   0.11595   0.13150   0.00000  Uiso   1.00
O185   O     0.96100   0.20825   0.03957   0.00000  Uiso   1.00
C186   C     0.79800   0.24095   0.00650   0.00000  Uiso   1.00
O187   O     0.83600   0.08325   0.16457   0.00000  Uiso   1.00
C188   C     0.92300   0.11595   0.13150   0.00000  Uiso   1.00
O189   O     0.78900   0.16675   0.03957   0.00000  Uiso   1.00
C190   C     0.95200   0.13405   0.00650   0.00000  Uiso   1.00
O191   O     0.91400   0.04175   0.16457   0.00000  Uiso   1.00
C192   C     0.82700   0.00905   0.13150   0.00000  Uiso   1.00
O193   O     0.78900   0.08325   0.21043   0.00000  Uiso   1.00
C194   C     0.95200   0.11595   0.24350   0.00000  Uiso   1.00
O195   O     0.91400   0.20825   0.08543   0.00000  Uiso   1.00
C196   C     0.82700   0.24095   0.11850   0.00000  Uiso   1.00
O197   O     0.96100   0.04175   0.21043   0.00000  Uiso   1.00
C198   C     0.79800   0.00905   0.24350   0.00000  Uiso   1.00
O199   O     0.83600   0.16675   0.08543   0.00000  Uiso   1.00
C200   C     0.92300   0.13405   0.11850   0.00000  Uiso   1.00
Al201  Al    0.81250   0.06250   0.18750   0.00000  Uiso   1.00
Al202  Al    0.93750   0.06250   0.18750   0.00000  Uiso   1.00
Al203  Al    0.93750   0.18750   0.06250   0.00000  Uiso   1.00
Al204  Al    0.81250   0.18750   0.06250   0.00000  Uiso   1.00
O205   O     0.75000   0.06250   0.17325   0.00000  Uiso   1.00
O206   O     0.87500   0.18750   0.04825   0.00000  Uiso   1.00
O207   O     0.75000   0.18750   0.07675   0.00000  Uiso   1.00
O208   O     0.87500   0.06250   0.20175   0.00000  Uiso   1.00
C209   C     0.75000   0.01500   0.23925   0.00000  Uiso   1.00
C210   C     0.75000   0.03230   0.22075   0.00000  Uiso   1.00
C211   C     0.87500   0.14000   0.11425   0.00000  Uiso   1.00
C212   C     0.87500   0.15730   0.09575   0.00000  Uiso   1.00
C213   C     0.75000   0.11000   0.23925   0.00000  Uiso   1.00
C214   C     0.75000   0.09270   0.22075   0.00000  Uiso   1.00
C215   C     0.87500   0.23500   0.11425   0.00000  Uiso   1.00
C216   C     0.87500   0.21770   0.09575   0.00000  Uiso   1.00
C217   C     0.75000   0.14000   0.01075   0.00000  Uiso   1.00
C218   C     0.75000   0.15730   0.02925   0.00000  Uiso   1.00
C219   C     0.87500   0.01500   0.13575   0.00000  Uiso   1.00
C220   C     0.87500   0.03230   0.15425   0.00000  Uiso   1.00
C221   C     0.75000   0.23500   0.01075   0.00000  Uiso   1.00
C222   C     0.75000   0.21770   0.02925   0.00000  Uiso   1.00
C223   C     0.87500   0.11000   0.13575   0.00000  Uiso   1.00
C224   C     0.87500   0.09270   0.15425   0.00000  Uiso   1.00
O225   O     0.03900   0.29175   0.21043   0.00000  Uiso   1.00
C226   C     0.20200   0.25905   0.24350   0.00000  Uiso   1.00
O227   O     0.16400   0.41675   0.08543   0.00000  Uiso   1.00
C228   C     0.07700   0.38405   0.11850   0.00000  Uiso   1.00
O229   O     0.21100   0.33325   0.21043   0.00000  Uiso   1.00
C230   C     0.04800   0.36595   0.24350   0.00000  Uiso   1.00
O231   O     0.08600   0.45825   0.08543   0.00000  Uiso   1.00
C232   C     0.17300   0.49095   0.11850   0.00000  Uiso   1.00
O233   O     0.21100   0.41675   0.03957   0.00000  Uiso   1.00
C234   C     0.04800   0.38405   0.00650   0.00000  Uiso   1.00
O235   O     0.08600   0.29175   0.16457   0.00000  Uiso   1.00
C236   C     0.17300   0.25905   0.13150   0.00000  Uiso   1.00
O237   O     0.03900   0.45825   0.03957   0.00000  Uiso   1.00
C238   C     0.20200   0.49095   0.00650   0.00000  Uiso   1.00
O239   O     0.16400   0.33325   0.16457   0.00000  Uiso   1.00
C240   C     0.07700   0.36595   0.13150   0.00000  Uiso   1.00
O241   O     0.21100   0.45825   0.03957   0.00000  Uiso   1.00
C242   C     0.04800   0.49095   0.00650   0.00000  Uiso   1.00
O243   O     0.08600   0.33325   0.16457   0.00000  Uiso   1.00
C244   C     0.17300   0.36595   0.13150   0.00000  Uiso   1.00
O245   O     0.03900   0.41675   0.03957   0.00000  Uiso   1.00
C246   C     0.20200   0.38405   0.00650   0.00000  Uiso   1.00
O247   O     0.16400   0.29175   0.16457   0.00000  Uiso   1.00
C248   C     0.07700   0.25905   0.13150   0.00000  Uiso   1.00
O249   O     0.03900   0.33325   0.21043   0.00000  Uiso   1.00
C250   C     0.20200   0.36595   0.24350   0.00000  Uiso   1.00
O251   O     0.16400   0.45825   0.08543   0.00000  Uiso   1.00
C252   C     0.07700   0.49095   0.11850   0.00000  Uiso   1.00
O253   O     0.21100   0.29175   0.21043   0.00000  Uiso   1.00
C254   C     0.04800   0.25905   0.24350   0.00000  Uiso   1.00
O255   O     0.08600   0.41675   0.08543   0.00000  Uiso   1.00
C256   C     0.17300   0.38405   0.11850   0.00000  Uiso   1.00
Al257  Al    0.06250   0.31250   0.18750   0.00000  Uiso   1.00
Al258  Al    0.18750   0.31250   0.18750   0.00000  Uiso   1.00
Al259  Al    0.18750   0.43750   0.06250   0.00000  Uiso   1.00
Al260  Al    0.06250   0.43750   0.06250   0.00000  Uiso   1.00
O261   O     0.00000   0.31250   0.17325   0.00000  Uiso   1.00
O262   O     0.12500   0.43750   0.04825   0.00000  Uiso   1.00
O263   O     0.00000   0.43750   0.07675   0.00000  Uiso   1.00
O264   O     0.12500   0.31250   0.20175   0.00000  Uiso   1.00
C265   C     0.00000   0.26500   0.23925   0.00000  Uiso   1.00
C266   C     0.00000   0.28230   0.22075   0.00000  Uiso   1.00
C267   C     0.12500   0.39000   0.11425   0.00000  Uiso   1.00
C268   C     0.12500   0.40730   0.09575   0.00000  Uiso   1.00
C269   C     0.00000   0.36000   0.23925   0.00000  Uiso   1.00
C270   C     0.00000   0.34270   0.22075   0.00000  Uiso   1.00
C271   C     0.12500   0.48500   0.11425   0.00000  Uiso   1.00
C272   C     0.12500   0.46770   0.09575   0.00000  Uiso   1.00
C273   C     0.00000   0.39000   0.01075   0.00000  Uiso   1.00
C274   C     0.00000   0.40730   0.02925   0.00000  Uiso   1.00
C275   C     0.12500   0.26500   0.13575   0.00000  Uiso   1.00
C276   C     0.12500   0.28230   0.15425   0.00000  Uiso   1.00
C277   C     0.00000   0.48500   0.01075   0.00000  Uiso   1.00
C278   C     0.00000   0.46770   0.02925   0.00000  Uiso   1.00
C279   C     0.12500   0.36000   0.13575   0.00000  Uiso   1.00
C280   C     0.12500   0.34270   0.15425   0.00000  Uiso   1.00
O281   O     0.28900   0.29175   0.21043   0.00000  Uiso   1.00
C282   C     0.45200   0.25905   0.24350   0.00000  Uiso   1.00
O283   O     0.41400   0.41675   0.08543   0.00000  Uiso   1.00
C284   C     0.32700   0.38405   0.11850   0.00000  Uiso   1.00
O285   O     0.46100   0.33325   0.21043   0.00000  Uiso   1.00
C286   C     0.29800   0.36595   0.24350   0.00000  Uiso   1.00
O287   O     0.33600   0.45825   0.08543   0.00000  Uiso   1.00
C288   C     0.42300   0.49095   0.11850   0.00000  Uiso   1.00
O289   O     0.46100   0.41675   0.03957   0.00000  Uiso   1.00
C290   C     0.29800   0.38405   0.00650   0.00000  Uiso   1.00
O291   O     0.33600   0.29175   0.16457   0.00000  Uiso   1.00
C292   C     0.42300   0.25905   0.13150   0.00000  Uiso   1.00
O293   O     0.28900   0.45825   0.03957   0.00000  Uiso   1.00
C294   C     0.45200   0.49095   0.00650   0.00000  Uiso   1.00
O295   O     0.41400   0.33325   0.16457   0.00000  Uiso   1.00
C296   C     0.32700   0.36595   0.13150   0.00000  Uiso   1.00
O297   O     0.46100   0.45825   0.03957   0.00000  Uiso   1.00
C298   C     0.29800   0.49095   0.00650   0.00000  Uiso   1.00
O299   O     0.33600   0.33325   0.16457   0.00000  Uiso   1.00
C300   C     0.42300   0.36595   0.13150   0.00000  Uiso   1.00
O301   O     0.28900   0.41675   0.03957   0.00000  Uiso   1.00
C302   C     0.45200   0.38405   0.00650   0.00000  Uiso   1.00
O303   O     0.41400   0.29175   0.16457   0.00000  Uiso   1.00
C304   C     0.32700   0.25905   0.13150   0.00000  Uiso   1.00
O305   O     0.28900   0.33325   0.21043   0.00000  Uiso   1.00
C306   C     0.45200   0.36595   0.24350   0.00000  Uiso   1.00
O307   O     0.41400   0.45825   0.08543   0.00000  Uiso   1.00
C308   C     0.32700   0.49095   0.11850   0.00000  Uiso   1.00
O309   O     0.46100   0.29175   0.21043   0.00000  Uiso   1.00
C310   C     0.29800   0.25905   0.24350   0.00000  Uiso   1.00
O311   O     0.33600   0.41675   0.08543   0.00000  Uiso   1.00
C312   C     0.42300   0.38405   0.11850   0.00000  Uiso   1.00
Al313  Al    0.31250   0.31250   0.18750   0.00000  Uiso   1.00
Al314  Al    0.43750   0.31250   0.18750   0.00000  Uiso   1.00
Al315  Al    0.43750   0.43750   0.06250   0.00000  Uiso   1.00
Al316  Al    0.31250   0.43750   0.06250   0.00000  Uiso   1.00
O317   O     0.25000   0.31250   0.17325   0.00000  Uiso   1.00
O318   O     0.37500   0.43750   0.04825   0.00000  Uiso   1.00
O319   O     0.25000   0.43750   0.07675   0.00000  Uiso   1.00
O320   O     0.37500   0.31250   0.20175   0.00000  Uiso   1.00
C321   C     0.25000   0.26500   0.23925   0.00000  Uiso   1.00
C322   C     0.25000   0.28230   0.22075   0.00000  Uiso   1.00
C323   C     0.37500   0.39000   0.11425   0.00000  Uiso   1.00
C324   C     0.37500   0.40730   0.09575   0.00000  Uiso   1.00
C325   C     0.25000   0.36000   0.23925   0.00000  Uiso   1.00
C326   C     0.25000   0.34270   0.22075   0.00000  Uiso   1.00
C327   C     0.37500   0.48500   0.11425   0.00000  Uiso   1.00
C328   C     0.37500   0.46770   0.09575   0.00000  Uiso   1.00
C329   C     0.25000   0.39000   0.01075   0.00000  Uiso   1.00
C330   C     0.25000   0.40730   0.02925   0.00000  Uiso   1.00
C331   C     0.37500   0.26500   0.13575   0.00000  Uiso   1.00
C332   C     0.37500   0.28230   0.15425   0.00000  Uiso   1.00
C333   C     0.25000   0.48500   0.01075   0.00000  Uiso   1.00
C334   C     0.25000   0.46770   0.02925   0.00000  Uiso   1.00
C335   C     0.37500   0.36000   0.13575   0.00000  Uiso   1.00
C336   C     0.37500   0.34270   0.15425   0.00000  Uiso   1.00
O337   O     0.53900   0.29175   0.21043   0.00000  Uiso   1.00
C338   C     0.70200   0.25905   0.24350   0.00000  Uiso   1.00
O339   O     0.66400   0.41675   0.08543   0.00000  Uiso   1.00
C340   C     0.57700   0.38405   0.11850   0.00000  Uiso   1.00
O341   O     0.71100   0.33325   0.21043   0.00000  Uiso   1.00
C342   C     0.54800   0.36595   0.24350   0.00000  Uiso   1.00
O343   O     0.58600   0.45825   0.08543   0.00000  Uiso   1.00
C344   C     0.67300   0.49095   0.11850   0.00000  Uiso   1.00
O345   O     0.71100   0.41675   0.03957   0.00000  Uiso   1.00
C346   C     0.54800   0.38405   0.00650   0.00000  Uiso   1.00
O347   O     0.58600   0.29175   0.16457   0.00000  Uiso   1.00
C348   C     0.67300   0.25905   0.13150   0.00000  Uiso   1.00
O349   O     0.53900   0.45825   0.03957   0.00000  Uiso   1.00
C350   C     0.70200   0.49095   0.00650   0.00000  Uiso   1.00
O351   O     0.66400   0.33325   0.16457   0.00000  Uiso   1.00
C352   C     0.57700   0.36595   0.13150   0.00000  Uiso   1.00
O353   O     0.71100   0.45825   0.03957   0.00000  Uiso   1.00
C354   C     0.54800   0.49095   0.00650   0.00000  Uiso   1.00
O355   O     0.58600   0.33325   0.16457   0.00000  Uiso   1.00
C356   C     0.67300   0.36595   0.13150   0.00000  Uiso   1.00
O357   O     0.53900   0.41675   0.03957   0.00000  Uiso   1.00
C358   C     0.70200   0.38405   0.00650   0.00000  Uiso   1.00
O359   O     0.66400   0.29175   0.16457   0.00000  Uiso   1.00
C360   C     0.57700   0.25905   0.13150   0.00000  Uiso   1.00
O361   O     0.53900   0.33325   0.21043   0.00000  Uiso   1.00
C362   C     0.70200   0.36595   0.24350   0.00000  Uiso   1.00
O363   O     0.66400   0.45825   0.08543   0.00000  Uiso   1.00
C364   C     0.57700   0.49095   0.11850   0.00000  Uiso   1.00
O365   O     0.71100   0.29175   0.21043   0.00000  Uiso   1.00
C366   C     0.54800   0.25905   0.24350   0.00000  Uiso   1.00
O367   O     0.58600   0.41675   0.08543   0.00000  Uiso   1.00
C368   C     0.67300   0.38405   0.11850   0.00000  Uiso   1.00
Al369  Al    0.56250   0.31250   0.18750   0.00000  Uiso   1.00
Al370  Al    0.68750   0.31250   0.18750   0.00000  Uiso   1.00
Al371  Al    0.68750   0.43750   0.06250   0.00000  Uiso   1.00
Al372  Al    0.56250   0.43750   0.06250   0.00000  Uiso   1.00
O373   O     0.50000   0.31250   0.17325   0.00000  Uiso   1.00
O374   O     0.62500   0.43750   0.04825   0.00000  Uiso   1.00
O375   O     0.50000   0.43750   0.07675   0.00000  Uiso   1.00
O376   O     0.62500   0.31250   0.20175   0.00000  Uiso   1.00
C377   C     0.50000   0.26500   0.23925   0.00000  Uiso   1.00
C378   C     0.50000   0.28230   0.22075   0.00000  Uiso   1.00
C379   C     0.62500   0.39000   0.11425   0.00000  Uiso   1.00
C380   C     0.62500   0.40730   0.09575   0.00000  Uiso   1.00
C381   C     0.50000   0.36000   0.23925   0.00000  Uiso   1.00
C382   C     0.50000   0.34270   0.22075   0.00000  Uiso   1.00
C383   C     0.62500   0.48500   0.11425   0.00000  Uiso   1.00
C384   C     0.62500   0.46770   0.09575   0.00000  Uiso   1.00
C385   C     0.50000   0.39000   0.01075   0.00000  Uiso   1.00
C386   C     0.50000   0.40730   0.02925   0.00000  Uiso   1.00
C387   C     0.62500   0.26500   0.13575   0.00000  Uiso   1.00
C388   C     0.62500   0.28230   0.15425   0.00000  Uiso   1.00
C389   C     0.50000   0.48500   0.01075   0.00000  Uiso   1.00
C390   C     0.50000   0.46770   0.02925   0.00000  Uiso   1.00
C391   C     0.62500   0.36000   0.13575   0.00000  Uiso   1.00
C392   C     0.62500   0.34270   0.15425   0.00000  Uiso   1.00
O393   O     0.78900   0.29175   0.21043   0.00000  Uiso   1.00
C394   C     0.95200   0.25905   0.24350   0.00000  Uiso   1.00
O395   O     0.91400   0.41675   0.08543   0.00000  Uiso   1.00
C396   C     0.82700   0.38405   0.11850   0.00000  Uiso   1.00
O397   O     0.96100   0.33325   0.21043   0.00000  Uiso   1.00
C398   C     0.79800   0.36595   0.24350   0.00000  Uiso   1.00
O399   O     0.83600   0.45825   0.08543   0.00000  Uiso   1.00
C400   C     0.92300   0.49095   0.11850   0.00000  Uiso   1.00
O401   O     0.96100   0.41675   0.03957   0.00000  Uiso   1.00
C402   C     0.79800   0.38405   0.00650   0.00000  Uiso   1.00
O403   O     0.83600   0.29175   0.16457   0.00000  Uiso   1.00
C404   C     0.92300   0.25905   0.13150   0.00000  Uiso   1.00
O405   O     0.78900   0.45825   0.03957   0.00000  Uiso   1.00
C406   C     0.95200   0.49095   0.00650   0.00000  Uiso   1.00
O407   O     0.91400   0.33325   0.16457   0.00000  Uiso   1.00
C408   C     0.82700   0.36595   0.13150   0.00000  Uiso   1.00
O409   O     0.96100   0.45825   0.03957   0.00000  Uiso   1.00
C410   C     0.79800   0.49095   0.00650   0.00000  Uiso   1.00
O411   O     0.83600   0.33325   0.16457   0.00000  Uiso   1.00
C412   C     0.92300   0.36595   0.13150   0.00000  Uiso   1.00
O413   O     0.78900   0.41675   0.03957   0.00000  Uiso   1.00
C414   C     0.95200   0.38405   0.00650   0.00000  Uiso   1.00
O415   O     0.91400   0.29175   0.16457   0.00000  Uiso   1.00
C416   C     0.82700   0.25905   0.13150   0.00000  Uiso   1.00
O417   O     0.78900   0.33325   0.21043   0.00000  Uiso   1.00
C418   C     0.95200   0.36595   0.24350   0.00000  Uiso   1.00
O419   O     0.91400   0.45825   0.08543   0.00000  Uiso   1.00
C420   C     0.82700   0.49095   0.11850   0.00000  Uiso   1.00
O421   O     0.96100   0.29175   0.21043   0.00000  Uiso   1.00
C422   C     0.79800   0.25905   0.24350   0.00000  Uiso   1.00
O423   O     0.83600   0.41675   0.08543   0.00000  Uiso   1.00
C424   C     0.92300   0.38405   0.11850   0.00000  Uiso   1.00
Al425  Al    0.81250   0.31250   0.18750   0.00000  Uiso   1.00
Al426  Al    0.93750   0.31250   0.18750   0.00000  Uiso   1.00
Al427  Al    0.93750   0.43750   0.06250   0.00000  Uiso   1.00
Al428  Al    0.81250   0.43750   0.06250   0.00000  Uiso   1.00
O429   O     0.75000   0.31250   0.17325   0.00000  Uiso   1.00
O430   O     0.87500   0.43750   0.04825   0.00000  Uiso   1.00
O431   O     0.75000   0.43750   0.07675   0.00000  Uiso   1.00
O432   O     0.87500   0.31250   0.20175   0.00000  Uiso   1.00
C433   C     0.75000   0.26500   0.23925   0.00000  Uiso   1.00
C434   C     0.75000   0.28230   0.22075   0.00000  Uiso   1.00
C435   C     0.87500   0.39000   0.11425   0.00000  Uiso   1.00
C436   C     0.87500   0.40730   0.09575   0.00000  Uiso   1.00
C437   C     0.75000   0.36000   0.23925   0.00000  Uiso   1.00
C438   C     0.75000   0.34270   0.22075   0.00000  Uiso   1.00
C439   C     0.87500   0.48500   0.11425   0.00000  Uiso   1.00
C440   C     0.87500   0.46770   0.09575   0.00000  Uiso   1.00
C441   C     0.75000   0.39000   0.01075   0.00000  Uiso   1.00
C442   C     0.75000   0.40730   0.02925   0.00000  Uiso   1.00
C443   C     0.87500   0.26500   0.13575   0.00000  Uiso   1.00
C444   C     0.87500   0.28230   0.15425   0.00000  Uiso   1.00
C445   C     0.75000   0.48500   0.01075   0.00000  Uiso   1.00
C446   C     0.75000   0.46770   0.02925   0.00000  Uiso   1.00
C447   C     0.87500   0.36000   0.13575   0.00000  Uiso   1.00
C448   C     0.87500   0.34270   0.15425   0.00000  Uiso   1.00
O449   O     0.03900   0.54175   0.21043   0.00000  Uiso   1.00
C450   C     0.20200   0.50905   0.24350   0.00000  Uiso   1.00
O451   O     0.16400   0.66675   0.08543   0.00000  Uiso   1.00
C452   C     0.07700   0.63405   0.11850   0.00000  Uiso   1.00
O453   O     0.21100   0.58325   0.21043   0.00000  Uiso   1.00
C454   C     0.04800   0.61595   0.24350   0.00000  Uiso   1.00
O455   O     0.08600   0.70825   0.08543   0.00000  Uiso   1.00
C456   C     0.17300   0.74095   0.11850   0.00000  Uiso   1.00
O457   O     0.21100   0.66675   0.03957   0.00000  Uiso   1.00
C458   C     0.04800   0.63405   0.00650   0.00000  Uiso   1.00
O459   O     0.08600   0.54175   0.16457   0.00000  Uiso   1.00
C460   C     0.17300   0.50905   0.13150   0.00000  Uiso   1.00
O461   O     0.03900   0.70825   0.03957   0.00000  Uiso   1.00
C462   C     0.20200   0.74095   0.00650   0.00000  Uiso   1.00
O463   O     0.16400   0.58325   0.16457   0.00000  Uiso   1.00
C464   C     0.07700   0.61595   0.13150   0.00000  Uiso   1.00
O465   O     0.21100   0.70825   0.03957   0.00000  Uiso   1.00
C466   C     0.04800   0.74095   0.00650   0.00000  Uiso   1.00
O467   O     0.08600   0.58325   0.16457   0.00000  Uiso   1.00
C468   C     0.17300   0.61595   0.13150   0.00000  Uiso   1.00
O469   O     0.03900   0.66675   0.03957   0.00000  Uiso   1.00
C470   C     0.20200   0.63405   0.00650   0.00000  Uiso   1.00
O471   O     0.16400   0.54175   0.16457   0.00000  Uiso   1.00
C472   C     0.07700   0.50905   0.13150   0.00000  Uiso   1.00
O473   O     0.03900   0.58325   0.21043   0.00000  Uiso   1.00
C474   C     0.20200   0.61595   0.24350   0.00000  Uiso   1.00
O475   O     0.16400   0.70825   0.08543   0.00000  Uiso   1.00
C476   C     0.07700   0.74095   0.11850   0.00000  Uiso   1.00
O477   O     0.21100   0.54175   0.21043   0.00000  Uiso   1.00
C478   C     0.04800   0.50905   0.24350   0.00000  Uiso   1.00
O479   O     0.08600   0.66675   0.08543   0.00000  Uiso   1.00
C480   C     0.17300   0.63405   0.11850   0.00000  Uiso   1.00
Al481  Al    0.06250   0.56250   0.18750   0.00000  Uiso   1.00
Al482  Al    0.18750   0.56250   0.18750   0.00000  Uiso   1.00
Al483  Al    0.18750   0.68750   0.06250   0.00000  Uiso   1.00
Al484  Al    0.06250   0.68750   0.06250   0.00000  Uiso   1.00
O485   O     0.00000   0.56250   0.17325   0.00000  Uiso   1.00
O486   O     0.12500   0.68750   0.04825   0.00000  Uiso   1.00
O487   O     0.00000   0.68750   0.07675   0.00000  Uiso   1.00
O488   O     0.12500   0.56250   0.20175   0.00000  Uiso   1.00
C489   C     0.00000   0.51500   0.23925   0.00000  Uiso   1.00
C490   C     0.00000   0.53230   0.22075   0.00000  Uiso   1.00
C491   C     0.12500   0.64000   0.11425   0.00000  Uiso   1.00
C492   C     0.12500   0.65730   0.09575   0.00000  Uiso   1.00
C493   C     0.00000   0.61000   0.23925   0.00000  Uiso   1.00
C494   C     0.00000   0.59270   0.22075   0.00000  Uiso   1.00
C495   C     0.12500   0.73500   0.11425   0.00000  Uiso   1.00
C496   C     0.12500   0.71770   0.09575   0.00000  Uiso   1.00
C497   C     0.00000   0.64000   0.01075   0.00000  Uiso   1.00
C498   C     0.00000   0.65730   0.02925   0.00000  Uiso   1.00
C499   C     0.12500   0.51500   0.13575   0.00000  Uiso   1.00
C500   C     0.12500   0.53230   0.15425   0.00000  Uiso   1.00
C501   C     0.00000   0.73500   0.01075   0.00000  Uiso   1.00
C502   C     0.00000   0.71770   0.02925   0.00000  Uiso   1.00
C503   C     0.12500   0.61000   0.13575   0.00000  Uiso   1.00
C504   C     0.12500   0.59270   0.15425   0.00000  Uiso   1.00
O505   O     0.28900   0.54175   0.21043   0.00000  Uiso   1.00
C506   C     0.45200   0.50905   0.24350   0.00000  Uiso   1.00
O507   O     0.41400   0.66675   0.08543   0.00000  Uiso   1.00
C508   C     0.32700   0.63405   0.11850   0.00000  Uiso   1.00
O509   O     0.46100   0.58325   0.21043   0.00000  Uiso   1.00
C510   C     0.29800   0.61595   0.24350   0.00000  Uiso   1.00
O511   O     0.33600   0.70825   0.08543   0.00000  Uiso   1.00
C512   C     0.42300   0.74095   0.11850   0.00000  Uiso   1.00
O513   O     0.46100   0.66675   0.03957   0.00000  Uiso   1.00
C514   C     0.29800   0.63405   0.00650   0.00000  Uiso   1.00
O515   O     0.33600   0.54175   0.16457   0.00000  Uiso   1.00
C516   C     0.42300   0.50905   0.13150   0.00000  Uiso   1.00
O517   O     0.28900   0.70825   0.03957   0.00000  Uiso   1.00
C518   C     0.45200   0.74095   0.00650   0.00000  Uiso   1.00
O519   O     0.41400   0.58325   0.16457   0.00000  Uiso   1.00
C520   C     0.32700   0.61595   0.13150   0.00000  Uiso   1.00
O521   O     0.46100   0.70825   0.03957   0.00000  Uiso   1.00
C522   C     0.29800   0.74095   0.00650   0.00000  Uiso   1.00
O523   O     0.33600   0.58325   0.16457   0.00000  Uiso   1.00
C524   C     0.42300   0.61595   0.13150   0.00000  Uiso   1.00
O525   O     0.28900   0.66675   0.03957   0.00000  Uiso   1.00
C526   C     0.45200   0.63405   0.00650   0.00000  Uiso   1.00
O527   O     0.41400   0.54175   0.16457   0.00000  Uiso   1.00
C528   C     0.32700   0.50905   0.13150   0.00000  Uiso   1.00
O529   O     0.28900   0.58325   0.21043   0.00000  Uiso   1.00
C530   C     0.45200   0.61595   0.24350   0.00000  Uiso   1.00
O531   O     0.41400   0.70825   0.08543   0.00000  Uiso   1.00
C532   C     0.32700   0.74095   0.11850   0.00000  Uiso   1.00
O533   O     0.46100   0.54175   0.21043   0.00000  Uiso   1.00
C534   C     0.29800   0.50905   0.24350   0.00000  Uiso   1.00
O535   O     0.33600   0.66675   0.08543   0.00000  Uiso   1.00
C536   C     0.42300   0.63405   0.11850   0.00000  Uiso   1.00
Al537  Al    0.31250   0.56250   0.18750   0.00000  Uiso   1.00
Al538  Al    0.43750   0.56250   0.18750   0.00000  Uiso   1.00
Al539  Al    0.43750   0.68750   0.06250   0.00000  Uiso   1.00
Al540  Al    0.31250   0.68750   0.06250   0.00000  Uiso   1.00
O541   O     0.25000   0.56250   0.17325   0.00000  Uiso   1.00
O542   O     0.37500   0.68750   0.04825   0.00000  Uiso   1.00
O543   O     0.25000   0.68750   0.07675   0.00000  Uiso   1.00
O544   O     0.37500   0.56250   0.20175   0.00000  Uiso   1.00
C545   C     0.25000   0.51500   0.23925   0.00000  Uiso   1.00
C546   C     0.25000   0.53230   0.22075   0.00000  Uiso   1.00
C547   C     0.37500   0.64000   0.11425   0.00000  Uiso   1.00
C548   C     0.37500   0.65730   0.09575   0.00000  Uiso   1.00
C549   C     0.25000   0.61000   0.23925   0.00000  Uiso   1.00
C550   C     0.25000   0.59270   0.22075   0.00000  Uiso   1.00
C551   C     0.37500   0.73500   0.11425   0.00000  Uiso   1.00
C552   C     0.37500   0.71770   0.09575   0.00000  Uiso   1.00
C553   C     0.25000   0.64000   0.01075   0.00000  Uiso   1.00
C554   C     0.25000   0.65730   0.02925   0.00000  Uiso   1.00
C555   C     0.37500   0.51500   0.13575   0.00000  Uiso   1.00
C556   C     0.37500   0.53230   0.15425   0.00000  Uiso   1.00
C557   C     0.25000   0.73500   0.01075   0.00000  Uiso   1.00
C558   C     0.25000   0.71770   0.02925   0.00000  Uiso   1.00
C559   C     0.37500   0.61000   0.13575   0.00000  Uiso   1.00
C560   C     0.37500   0.59270   0.15425   0.00000  Uiso   1.00
O561   O     0.53900   0.54175   0.21043   0.00000  Uiso   1.00
C562   C     0.70200   0.50905   0.24350   0.00000  Uiso   1.00
O563   O     0.66400   0.66675   0.08543   0.00000  Uiso   1.00
C564   C     0.57700   0.63405   0.11850   0.00000  Uiso   1.00
O565   O     0.71100   0.58325   0.21043   0.00000  Uiso   1.00
C566   C     0.54800   0.61595   0.24350   0.00000  Uiso   1.00
O567   O     0.58600   0.70825   0.08543   0.00000  Uiso   1.00
C568   C     0.67300   0.74095   0.11850   0.00000  Uiso   1.00
O569   O     0.71100   0.66675   0.03957   0.00000  Uiso   1.00
C570   C     0.54800   0.63405   0.00650   0.00000  Uiso   1.00
O571   O     0.58600   0.54175   0.16457   0.00000  Uiso   1.00
C572   C     0.67300   0.50905   0.13150   0.00000  Uiso   1.00
O573   O     0.53900   0.70825   0.03957   0.00000  Uiso   1.00
C574   C     0.70200   0.74095   0.00650   0.00000  Uiso   1.00
O575   O     0.66400   0.58325   0.16457   0.00000  Uiso   1.00
C576   C     0.57700   0.61595   0.13150   0.00000  Uiso   1.00
O577   O     0.71100   0.70825   0.03957   0.00000  Uiso   1.00
C578   C     0.54800   0.74095   0.00650   0.00000  Uiso   1.00
O579   O     0.58600   0.58325   0.16457   0.00000  Uiso   1.00
C580   C     0.67300   0.61595   0.13150   0.00000  Uiso   1.00
O581   O     0.53900   0.66675   0.03957   0.00000  Uiso   1.00
C582   C     0.70200   0.63405   0.00650   0.00000  Uiso   1.00
O583   O     0.66400   0.54175   0.16457   0.00000  Uiso   1.00
C584   C     0.57700   0.50905   0.13150   0.00000  Uiso   1.00
O585   O     0.53900   0.58325   0.21043   0.00000  Uiso   1.00
C586   C     0.70200   0.61595   0.24350   0.00000  Uiso   1.00
O587   O     0.66400   0.70825   0.08543   0.00000  Uiso   1.00
C588   C     0.57700   0.74095   0.11850   0.00000  Uiso   1.00
O589   O     0.71100   0.54175   0.21043   0.00000  Uiso   1.00
C590   C     0.54800   0.50905   0.24350   0.00000  Uiso   1.00
O591   O     0.58600   0.66675   0.08543   0.00000  Uiso   1.00
C592   C     0.67300   0.63405   0.11850   0.00000  Uiso   1.00
Al593  Al    0.56250   0.56250   0.18750   0.00000  Uiso   1.00
Al594  Al    0.68750   0.56250   0.18750   0.00000  Uiso   1.00
Al595  Al    0.68750   0.68750   0.06250   0.00000  Uiso   1.00
Al596  Al    0.56250   0.68750   0.06250   0.00000  Uiso   1.00
O597   O     0.50000   0.56250   0.17325   0.00000  Uiso   1.00
O598   O     0.62500   0.68750   0.04825   0.00000  Uiso   1.00
O599   O     0.50000   0.68750   0.07675   0.00000  Uiso   1.00
O600   O     0.62500   0.56250   0.20175   0.00000  Uiso   1.00
C601   C     0.50000   0.51500   0.23925   0.00000  Uiso   1.00
C602   C     0.50000   0.53230   0.22075   0.00000  Uiso   1.00
C603   C     0.62500   0.64000   0.11425   0.00000  Uiso   1.00
C604   C     0.62500   0.65730   0.09575   0.00000  Uiso   1.00
C605   C     0.50000   0.61000   0.23925   0.00000  Uiso   1.00
C606   C     0.50000   0.59270   0.22075   0.00000  Uiso   1.00
C607   C     0.62500   0.73500   0.11425   0.00000  Uiso   1.00
C608   C     0.62500   0.71770   0.09575   0.00000  Uiso   1.00
C609   C     0.50000   0.64000   0.01075   0.00000  Uiso   1.00
C610   C     0.50000   0.65730   0.02925   0.00000  Uiso   1.00
C611   C     0.62500   0.51500   0.13575   0.00000  Uiso   1.00
C612   C     0.62500   0.53230   0.15425   0.00000  Uiso   1.00
C613   C     0.50000   0.73500   0.01075   0.00000  Uiso   1.00
C614   C     0.50000   0.71770   0.02925   0.00000  Uiso   1.00
C615   C     0.62500   0.61000   0.13575   0.00000  Uiso   1.00
C616   C     0.62500   0.59270   0.15425   0.00000  Uiso   1.00
O617   O     0.78900   0.54175   0.21043   0.00000  Uiso   1.00
C618   C     0.95200   0.50905   0.24350   0.00000  Uiso   1.00
O619   O     0.91400   0.66675   0.08543   0.00000  Uiso   1.00
C620   C     0.82700   0.63405   0.11850   0.00000  Uiso   1.00
O621   O     0.96100   0.58325   0.21043   0.00000  Uiso   1.00
C622   C     0.79800   0.61595   0.24350   0.00000  Uiso   1.00
O623   O     0.83600   0.70825   0.08543   0.00000  Uiso   1.00
C624   C     0.92300   0.74095   0.11850   0.00000  Uiso   1.00
O625   O     0.96100   0.66675   0.03957   0.00000  Uiso   1.00
C626   C     0.79800   0.63405   0.00650   0.00000  Uiso   1.00
O627   O     0.83600   0.54175   0.16457   0.00000  Uiso   1.00
C628   C     0.92300   0.50905   0.13150   0.00000  Uiso   1.00
O629   O     0.78900   0.70825   0.03957   0.00000  Uiso   1.00
C630   C     0.95200   0.74095   0.00650   0.00000  Uiso   1.00
O631   O     0.91400   0.58325   0.16457   0.00000  Uiso   1.00
C632   C     0.82700   0.61595   0.13150   0.00000  Uiso   1.00
O633   O     0.96100   0.70825   0.03957   0.00000  Uiso   1.00
C634   C     0.79800   0.74095   0.00650   0.00000  Uiso   1.00
O635   O     0.83600   0.58325   0.16457   0.00000  Uiso   1.00
C636   C     0.92300   0.61595   0.13150   0.00000  Uiso   1.00
O637   O     0.78900   0.66675   0.03957   0.00000  Uiso   1.00
C638   C     0.95200   0.63405   0.00650   0.00000  Uiso   1.00
O639   O     0.91400   0.54175   0.16457   0.00000  Uiso   1.00
C640   C     0.82700   0.50905   0.13150   0.00000  Uiso   1.00
O641   O     0.78900   0.58325   0.21043   0.00000  Uiso   1.00
C642   C     0.95200   0.61595   0.24350   0.00000  Uiso   1.00
O643   O     0.91400   0.70825   0.08543   0.00000  Uiso   1.00
C644   C     0.82700   0.74095   0.11850   0.00000  Uiso   1.00
O645   O     0.96100   0.54175   0.21043   0.00000  Uiso   1.00
C646   C     0.79800   0.50905   0.24350   0.00000  Uiso   1.00
O647   O     0.83600   0.66675   0.08543   0.00000  Uiso   1.00
C648   C     0.92300   0.63405   0.11850   0.00000  Uiso   1.00
Al649  Al    0.81250   0.56250   0.18750   0.00000  Uiso   1.00
Al650  Al    0.93750   0.56250   0.18750   0.00000  Uiso   1.00
Al651  Al    0.93750   0.68750   0.06250   0.00000  Uiso   1.00
Al652  Al    0.81250   0.68750   0.06250   0.00000  Uiso   1.00
O653   O     0.75000   0.56250   0.17325   0.00000  Uiso   1.00
O654   O     0.87500   0.68750   0.04825   0.00000  Uiso   1.00
O655   O     0.75000   0.68750   0.07675   0.00000  Uiso   1.00
O656   O     0.87500   0.56250   0.20175   0.00000  Uiso   1.00
C657   C     0.75000   0.51500   0.23925   0.00000  Uiso   1.00
C658   C     0.75000   0.53230   0.22075   0.00000  Uiso   1.00
C659   C     0.87500   0.64000   0.11425   0.00000  Uiso   1.00
C660   C     0.87500   0.65730   0.09575   0.00000  Uiso   1.00
C661   C     0.75000   0.61000   0.23925   0.00000  Uiso   1.00
C662   C     0.75000   0.59270   0.22075   0.00000  Uiso   1.00
C663   C     0.87500   0.73500   0.11425   0.00000  Uiso   1.00
C664   C     0.87500   0.71770   0.09575   0.00000  Uiso   1.00
C665   C     0.75000   0.64000   0.01075   0.00000  Uiso   1.00
C666   C     0.75000   0.65730   0.02925   0.00000  Uiso   1.00
C667   C     0.87500   0.51500   0.13575   0.00000  Uiso   1.00
C668   C     0.87500   0.53230   0.15425   0.00000  Uiso   1.00
C669   C     0.75000   0.73500   0.01075   0.00000  Uiso   1.00
C670   C     0.75000   0.71770   0.02925   0.00000  Uiso   1.00
C671   C     0.87500   0.61000   0.13575   0.00000  Uiso   1.00
C672   C     0.87500   0.59270   0.15425   0.00000  Uiso   1.00
O673   O     0.03900   0.79175   0.21043   0.00000  Uiso   1.00
C674   C     0.20200   0.75905   0.24350   0.00000  Uiso   1.00
O675   O     0.16400   0.91675   0.08543   0.00000  Uiso   1.00
C676   C     0.07700   0.88405   0.11850   0.00000  Uiso   1.00
O677   O     0.21100   0.83325   0.21043   0.00000  Uiso   1.00
C678   C     0.04800   0.86595   0.24350   0.00000  Uiso   1.00
O679   O     0.08600   0.95825   0.08543   0.00000  Uiso   1.00
C680   C     0.17300   0.99095   0.11850   0.00000  Uiso   1.00
O681   O     0.21100   0.91675   0.03957   0.00000  Uiso   1.00
C682   C     0.04800   0.88405   0.00650   0.00000  Uiso   1.00
O683   O     0.08600   0.79175   0.16457   0.00000  Uiso   1.00
C684   C     0.17300   0.75905   0.13150   0.00000  Uiso   1.00
O685   O     0.03900   0.95825   0.03957   0.00000  Uiso   1.00
C686   C     0.20200   0.99095   0.00650   0.00000  Uiso   1.00
O687   O     0.16400   0.83325   0.16457   0.00000  Uiso   1.00
C688   C     0.07700   0.86595   0.13150   0.00000  Uiso   1.00
O689   O     0.21100   0.95825   0.03957   0.00000  Uiso   1.00
C690   C     0.04800   0.99095   0.00650   0.00000  Uiso   1.00
O691   O     0.08600   0.83325   0.16457   0.00000  Uiso   1.00
C692   C     0.17300   0.86595   0.13150   0.00000  Uiso   1.00
O693   O     0.03900   0.91675   0.03957   0.00000  Uiso   1.00
C694   C     0.20200   0.88405   0.00650   0.00000  Uiso   1.00
O695   O     0.16400   0.79175   0.16457   0.00000  Uiso   1.00
C696   C     0.07700   0.75905   0.13150   0.00000  Uiso   1.00
O697   O     0.03900   0.83325   0.21043   0.00000  Uiso   1.00
C698   C     0.20200   0.86595   0.24350   0.00000  Uiso   1.00
O699   O     0.16400   0.95825   0.08543   0.00000  Uiso   1.00
C700   C     0.07700   0.99095   0.11850   0.00000  Uiso   1.00
O701   O     0.21100   0.79175   0.21043   0.00000  Uiso   1.00
C702   C     0.04800   0.75905   0.24350   0.00000  Uiso   1.00
O703   O     0.08600   0.91675   0.08543   0.00000  Uiso   1.00
C704   C     0.17300   0.88405   0.11850   0.00000  Uiso   1.00
Al705  Al    0.06250   0.81250   0.18750   0.00000  Uiso   1.00
Al706  Al    0.18750   0.81250   0.18750   0.00000  Uiso   1.00
Al707  Al    0.18750   0.93750   0.06250   0.00000  Uiso   1.00
Al708  Al    0.06250   0.93750   0.06250   0.00000  Uiso   1.00
O709   O     0.00000   0.81250   0.17325   0.00000  Uiso   1.00
O710   O     0.12500   0.93750   0.04825   0.00000  Uiso   1.00
O711   O     0.00000   0.93750   0.07675   0.00000  Uiso   1.00
O712   O     0.12500   0.81250   0.20175   0.00000  Uiso   1.00
C713   C     0.00000   0.76500   0.23925   0.00000  Uiso   1.00
C714   C     0.00000   0.78230   0.22075   0.00000  Uiso   1.00
C715   C     0.12500   0.89000   0.11425   0.00000  Uiso   1.00
C716   C     0.12500   0.90730   0.09575   0.00000  Uiso   1.00
C717   C     0.00000   0.86000   0.23925   0.00000  Uiso   1.00
C718   C     0.00000   0.84270   0.22075   0.00000  Uiso   1.00
C719   C     0.12500   0.98500   0.11425   0.00000  Uiso   1.00
C720   C     0.12500   0.96770   0.09575   0.00000  Uiso   1.00
C721   C     0.00000   0.89000   0.01075   0.00000  Uiso   1.00
C722   C     0.00000   0.90730   0.02925   0.00000  Uiso   1.00
C723   C     0.12500   0.76500   0.13575   0.00000  Uiso   1.00
C724   C     0.12500   0.78230   0.15425   0.00000  Uiso   1.00
C725   C     0.00000   0.98500   0.01075   0.00000  Uiso   1.00
C726   C     0.00000   0.96770   0.02925   0.00000  Uiso   1.00
C727   C     0.12500   0.86000   0.13575   0.00000  Uiso   1.00
C728   C     0.12500   0.84270   0.15425   0.00000  Uiso   1.00
O729   O     0.28900   0.79175   0.21043   0.00000  Uiso   1.00
C730   C     0.45200   0.75905   0.24350   0.00000  Uiso   1.00
O731   O     0.41400   0.91675   0.08543   0.00000  Uiso   1.00
C732   C     0.32700   0.88405   0.11850   0.00000  Uiso   1.00
O733   O     0.46100   0.83325   0.21043   0.00000  Uiso   1.00
C734   C     0.29800   0.86595   0.24350   0.00000  Uiso   1.00
O735   O     0.33600   0.95825   0.08543   0.00000  Uiso   1.00
C736   C     0.42300   0.99095   0.11850   0.00000  Uiso   1.00
O737   O     0.46100   0.91675   0.03957   0.00000  Uiso   1.00
C738   C     0.29800   0.88405   0.00650   0.00000  Uiso   1.00
O739   O     0.33600   0.79175   0.16457   0.00000  Uiso   1.00
C740   C     0.42300   0.75905   0.13150   0.00000  Uiso   1.00
O741   O     0.28900   0.95825   0.03957   0.00000  Uiso   1.00
C742   C     0.45200   0.99095   0.00650   0.00000  Uiso   1.00
O743   O     0.41400   0.83325   0.16457   0.00000  Uiso   1.00
C744   C     0.32700   0.86595   0.13150   0.00000  Uiso   1.00
O745   O     0.46100   0.95825   0.03957   0.00000  Uiso   1.00
C746   C     0.29800   0.99095   0.00650   0.00000  Uiso   1.00
O747   O     0.33600   0.83325   0.16457   0.00000  Uiso   1.00
C748   C     0.42300   0.86595   0.13150   0.00000  Uiso   1.00
O749   O     0.28900   0.91675   0.03957   0.00000  Uiso   1.00
C750   C     0.45200   0.88405   0.00650   0.00000  Uiso   1.00
O751   O     0.41400   0.79175   0.16457   0.00000  Uiso   1.00
C752   C     0.32700   0.75905   0.13150   0.00000  Uiso   1.00
O753   O     0.28900   0.83325   0.21043   0.00000  Uiso   1.00
C754   C     0.45200   0.86595   0.24350   0.00000  Uiso   1.00
O755   O     0.41400   0.95825   0.08543   0.00000  Uiso   1.00
C756   C     0.32700   0.99095   0.11850   0.00000  Uiso   1.00
O757   O     0.46100   0.79175   0.21043   0.00000  Uiso   1.00
C758   C     0.29800   0.75905   0.24350   0.00000  Uiso   1.00
O759   O     0.33600   0.91675   0.08543   0.00000  Uiso   1.00
C760   C     0.42300   0.88405   0.11850   0.00000  Uiso   1.00
Al761  Al    0.31250   0.81250   0.18750   0.00000  Uiso   1.00
Al762  Al    0.43750   0.81250   0.18750   0.00000  Uiso   1.00
Al763  Al    0.43750   0.93750   0.06250   0.00000  Uiso   1.00
Al764  Al    0.31250   0.93750   0.06250   0.00000  Uiso   1.00
O765   O     0.25000   0.81250   0.17325   0.00000  Uiso   1.00
O766   O     0.37500   0.93750   0.04825   0.00000  Uiso   1.00
O767   O     0.25000   0.93750   0.07675   0.00000  Uiso   1.00
O768   O     0.37500   0.81250   0.20175   0.00000  Uiso   1.00
C769   C     0.25000   0.76500   0.23925   0.00000  Uiso   1.00
C770   C     0.25000   0.78230   0.22075   0.00000  Uiso   1.00
C771   C     0.37500   0.89000   0.11425   0.00000  Uiso   1.00
C772   C     0.37500   0.90730   0.09575   0.00000  Uiso   1.00
C773   C     0.25000   0.86000   0.23925   0.00000  Uiso   1.00
C774   C     0.25000   0.84270   0.22075   0.00000  Uiso   1.00
C775   C     0.37500   0.98500   0.11425   0.00000  Uiso   1.00
C776   C     0.37500   0.96770   0.09575   0.00000  Uiso   1.00
C777   C     0.25000   0.89000   0.01075   0.00000  Uiso   1.00
C778   C     0.25000   0.90730   0.02925   0.00000  Uiso   1.00
C779   C     0.37500   0.76500   0.13575   0.00000  Uiso   1.00
C780   C     0.37500   0.78230   0.15425   0.00000  Uiso   1.00
C781   C     0.25000   0.98500   0.01075   0.00000  Uiso   1.00
C782   C     0.25000   0.96770   0.02925   0.00000  Uiso   1.00
C783   C     0.37500   0.86000   0.13575   0.00000  Uiso   1.00
C784   C     0.37500   0.84270   0.15425   0.00000  Uiso   1.00
O785   O     0.53900   0.79175   0.21043   0.00000  Uiso   1.00
C786   C     0.70200   0.75905   0.24350   0.00000  Uiso   1.00
O787   O     0.66400   0.91675   0.08543   0.00000  Uiso   1.00
C788   C     0.57700   0.88405   0.11850   0.00000  Uiso   1.00
O789   O     0.71100   0.83325   0.21043   0.00000  Uiso   1.00
C790   C     0.54800   0.86595   0.24350   0.00000  Uiso   1.00
O791   O     0.58600   0.95825   0.08543   0.00000  Uiso   1.00
C792   C     0.67300   0.99095   0.11850   0.00000  Uiso   1.00
O793   O     0.71100   0.91675   0.03957   0.00000  Uiso   1.00
C794   C     0.54800   0.88405   0.00650   0.00000  Uiso   1.00
O795   O     0.58600   0.79175   0.16457   0.00000  Uiso   1.00
C796   C     0.67300   0.75905   0.13150   0.00000  Uiso   1.00
O797   O     0.53900   0.95825   0.03957   0.00000  Uiso   1.00
C798   C     0.70200   0.99095   0.00650   0.00000  Uiso   1.00
O799   O     0.66400   0.83325   0.16457   0.00000  Uiso   1.00
C800   C     0.57700   0.86595   0.13150   0.00000  Uiso   1.00
O801   O     0.71100   0.95825   0.03957   0.00000  Uiso   1.00
C802   C     0.54800   0.99095   0.00650   0.00000  Uiso   1.00
O803   O     0.58600   0.83325   0.16457   0.00000  Uiso   1.00
C804   C     0.67300   0.86595   0.13150   0.00000  Uiso   1.00
O805   O     0.53900   0.91675   0.03957   0.00000  Uiso   1.00
C806   C     0.70200   0.88405   0.00650   0.00000  Uiso   1.00
O807   O     0.66400   0.79175   0.16457   0.00000  Uiso   1.00
C808   C     0.57700   0.75905   0.13150   0.00000  Uiso   1.00
O809   O     0.53900   0.83325   0.21043   0.00000  Uiso   1.00
C810   C     0.70200   0.86595   0.24350   0.00000  Uiso   1.00
O811   O     0.66400   0.95825   0.08543   0.00000  Uiso   1.00
C812   C     0.57700   0.99095   0.11850   0.00000  Uiso   1.00
O813   O     0.71100   0.79175   0.21043   0.00000  Uiso   1.00
C814   C     0.54800   0.75905   0.24350   0.00000  Uiso   1.00
O815   O     0.58600   0.91675   0.08543   0.00000  Uiso   1.00
C816   C     0.67300   0.88405   0.11850   0.00000  Uiso   1.00
Al817  Al    0.56250   0.81250   0.18750   0.00000  Uiso   1.00
Al818  Al    0.68750   0.81250   0.18750   0.00000  Uiso   1.00
Al819  Al    0.68750   0.93750   0.06250   0.00000  Uiso   1.00
Al820  Al    0.56250   0.93750   0.06250   0.00000  Uiso   1.00
O821   O     0.50000   0.81250   0.17325   0.00000  Uiso   1.00
O822   O     0.62500   0.93750   0.04825   0.00000  Uiso   1.00
O823   O     0.50000   0.93750   0.07675   0.00000  Uiso   1.00
O824   O     0.62500   0.81250   0.20175   0.00000  Uiso   1.00
C825   C     0.50000   0.76500   0.23925   0.00000  Uiso   1.00
C826   C     0.50000   0.78230   0.22075   0.00000  Uiso   1.00
C827   C     0.62500   0.89000   0.11425   0.00000  Uiso   1.00
C828   C     0.62500   0.90730   0.09575   0.00000  Uiso   1.00
C829   C     0.50000   0.86000   0.23925   0.00000  Uiso   1.00
C830   C     0.50000   0.84270   0.22075   0.00000  Uiso   1.00
C831   C     0.62500   0.98500   0.11425   0.00000  Uiso   1.00
C832   C     0.62500   0.96770   0.09575   0.00000  Uiso   1.00
C833   C     0.50000   0.89000   0.01075   0.00000  Uiso   1.00
C834   C     0.50000   0.90730   0.02925   0.00000  Uiso   1.00
C835   C     0.62500   0.76500   0.13575   0.00000  Uiso   1.00
C836   C     0.62500   0.78230   0.15425   0.00000  Uiso   1.00
C837   C     0.50000   0.98500   0.01075   0.00000  Uiso   1.00
C838   C     0.50000   0.96770   0.02925   0.00000  Uiso   1.00
C839   C     0.62500   0.86000   0.13575   0.00000  Uiso   1.00
C840   C     0.62500   0.84270   0.15425   0.00000  Uiso   1.00
O841   O     0.78900   0.79175   0.21043   0.00000  Uiso   1.00
C842   C     0.95200   0.75905   0.24350   0.00000  Uiso   1.00
O843   O     0.91400   0.91675   0.08543   0.00000  Uiso   1.00
C844   C     0.82700   0.88405   0.11850   0.00000  Uiso   1.00
O845   O     0.96100   0.83325   0.21043   0.00000  Uiso   1.00
C846   C     0.79800   0.86595   0.24350   0.00000  Uiso   1.00
O847   O     0.83600   0.95825   0.08543   0.00000  Uiso   1.00
C848   C     0.92300   0.99095   0.11850   0.00000  Uiso   1.00
O849   O     0.96100   0.91675   0.03957   0.00000  Uiso   1.00
C850   C     0.79800   0.88405   0.00650   0.00000  Uiso   1.00
O851   O     0.83600   0.79175   0.16457   0.00000  Uiso   1.00
C852   C     0.92300   0.75905   0.13150   0.00000  Uiso   1.00
O853   O     0.78900   0.95825   0.03957   0.00000  Uiso   1.00
C854   C     0.95200   0.99095   0.00650   0.00000  Uiso   1.00
O855   O     0.91400   0.83325   0.16457   0.00000  Uiso   1.00
C856   C     0.82700   0.86595   0.13150   0.00000  Uiso   1.00
O857   O     0.96100   0.95825   0.03957   0.00000  Uiso   1.00
C858   C     0.79800   0.99095   0.00650   0.00000  Uiso   1.00
O859   O     0.83600   0.83325   0.16457   0.00000  Uiso   1.00
C860   C     0.92300   0.86595   0.13150   0.00000  Uiso   1.00
O861   O     0.78900   0.91675   0.03957   0.00000  Uiso   1.00
C862   C     0.95200   0.88405   0.00650   0.00000  Uiso   1.00
O863   O     0.91400   0.79175   0.16457   0.00000  Uiso   1.00
C864   C     0.82700   0.75905   0.13150   0.00000  Uiso   1.00
O865   O     0.78900   0.83325   0.21043   0.00000  Uiso   1.00
C866   C     0.95200   0.86595   0.24350   0.00000  Uiso   1.00
O867   O     0.91400   0.95825   0.08543   0.00000  Uiso   1.00
C868   C     0.82700   0.99095   0.11850   0.00000  Uiso   1.00
O869   O     0.96100   0.79175   0.21043   0.00000  Uiso   1.00
C870   C     0.79800   0.75905   0.24350   0.00000  Uiso   1.00
O871   O     0.83600   0.91675   0.08543   0.00000  Uiso   1.00
C872   C     0.92300   0.88405   0.11850   0.00000  Uiso   1.00
Al873  Al    0.81250   0.81250   0.18750   0.00000  Uiso   1.00
Al874  Al    0.93750   0.81250   0.18750   0.00000  Uiso   1.00
Al875  Al    0.93750   0.93750   0.06250   0.00000  Uiso   1.00
Al876  Al    0.81250   0.93750   0.06250   0.00000  Uiso   1.00
O877   O     0.75000   0.81250   0.17325   0.00000  Uiso   1.00
O878   O     0.87500   0.93750   0.04825   0.00000  Uiso   1.00
O879   O     0.75000   0.93750   0.07675   0.00000  Uiso   1.00
O880   O     0.87500   0.81250   0.20175   0.00000  Uiso   1.00
C881   C     0.75000   0.76500   0.23925   0.00000  Uiso   1.00
C882   C     0.75000   0.78230   0.22075   0.00000  Uiso   1.00
C883   C     0.87500   0.89000   0.11425   0.00000  Uiso   1.00
C884   C     0.87500   0.90730   0.09575   0.00000  Uiso   1.00
C885   C     0.75000   0.86000   0.23925   0.00000  Uiso   1.00
C886   C     0.75000   0.84270   0.22075   0.00000  Uiso   1.00
C887   C     0.87500   0.98500   0.11425   0.00000  Uiso   1.00
C888   C     0.87500   0.96770   0.09575   0.00000  Uiso   1.00
C889   C     0.75000   0.89000   0.01075   0.00000  Uiso   1.00
C890   C     0.75000   0.90730   0.02925   0.00000  Uiso   1.00
C891   C     0.87500   0.76500   0.13575   0.00000  Uiso   1.00
C892   C     0.87500   0.78230   0.15425   0.00000  Uiso   1.00
C893   C     0.75000   0.98500   0.01075   0.00000  Uiso   1.00
C894   C     0.75000   0.96770   0.02925   0.00000  Uiso   1.00
C895   C     0.87500   0.86000   0.13575   0.00000  Uiso   1.00
C896   C     0.87500   0.84270   0.15425   0.00000  Uiso   1.00
O897   O     0.03900   0.04175   0.46043   0.00000  Uiso   1.00
C898   C     0.20200   0.00905   0.49350   0.00000  Uiso   1.00
O899   O     0.16400   0.16675   0.33543   0.00000  Uiso   1.00
C900   C     0.07700   0.13405   0.36850   0.00000  Uiso   1.00
O901   O     0.21100   0.08325   0.46043   0.00000  Uiso   1.00
C902   C     0.04800   0.11595   0.49350   0.00000  Uiso   1.00
O903   O     0.08600   0.20825   0.33543   0.00000  Uiso   1.00
C904   C     0.17300   0.24095   0.36850   0.00000  Uiso   1.00
O905   O     0.21100   0.16675   0.28957   0.00000  Uiso   1.00
C906   C     0.04800   0.13405   0.25650   0.00000  Uiso   1.00
O907   O     0.08600   0.04175   0.41457   0.00000  Uiso   1.00
C908   C     0.17300   0.00905   0.38150   0.00000  Uiso   1.00
O909   O     0.03900   0.20825   0.28957   0.00000  Uiso   1.00
C910   C     0.20200   0.24095   0.25650   0.00000  Uiso   1.00
O911   O     0.16400   0.08325   0.41457   0.00000  Uiso   1.00
C912   C     0.07700   0.11595   0.38150   0.00000  Uiso   1.00
O913   O     0.21100   0.20825   0.28957   0.00000  Uiso   1.00
C914   C     0.04800   0.24095   0.25650   0.00000  Uiso   1.00
O915   O     0.08600   0.08325   0.41457   0.00000  Uiso   1.00
C916   C     0.17300   0.11595   0.38150   0.00000  Uiso   1.00
O917   O     0.03900   0.16675   0.28957   0.00000  Uiso   1.00
C918   C     0.20200   0.13405   0.25650   0.00000  Uiso   1.00
O919   O     0.16400   0.04175   0.41457   0.00000  Uiso   1.00
C920   C     0.07700   0.00905   0.38150   0.00000  Uiso   1.00
O921   O     0.03900   0.08325   0.46043   0.00000  Uiso   1.00
C922   C     0.20200   0.11595   0.49350   0.00000  Uiso   1.00
O923   O     0.16400   0.20825   0.33543   0.00000  Uiso   1.00
C924   C     0.07700   0.24095   0.36850   0.00000  Uiso   1.00
O925   O     0.21100   0.04175   0.46043   0.00000  Uiso   1.00
C926   C     0.04800   0.00905   0.49350   0.00000  Uiso   1.00
O927   O     0.08600   0.16675   0.33543   0.00000  Uiso   1.00
C928   C     0.17300   0.13405   0.36850   0.00000  Uiso   1.00
Al929  Al    0.06250   0.06250   0.43750   0.00000  Uiso   1.00
Al930  Al    0.18750   0.06250   0.43750   0.00000  Uiso   1.00
Al931  Al    0.18750   0.18750   0.31250   0.00000  Uiso   1.00
Al932  Al    0.06250   0.18750   0.31250   0.00000  Uiso   1.00
O933   O     0.00000   0.06250   0.42325   0.00000  Uiso   1.00
O934   O     0.12500   0.18750   0.29825   0.00000  Uiso   1.00
O935   O     0.00000   0.18750   0.32675   0.00000  Uiso   1.00
O936   O     0.12500   0.06250   0.45175   0.00000  Uiso   1.00
C937   C     0.00000   0.01500   0.48925   0.00000  Uiso   1.00
C938   C     0.00000   0.03230   0.47075   0.00000  Uiso   1.00
C939   C     0.12500   0.14000   0.36425   0.00000  Uiso   1.00
C940   C     0.12500   0.15730   0.34575   0.00000  Uiso   1.00
C941   C     0.00000   0.11000   0.48925   0.00000  Uiso   1.00
C942   C     0.00000   0.09270   0.47075   0.00000  Uiso   1.00
C943   C     0.12500   0.23500   0.36425   0.00000  Uiso   1.00
C944   C     0.12500   0.21770   0.34575   0.00000  Uiso   1.00
C945   C     0.00000   0.14000   0.26075   0.00000  Uiso   1.00
C946   C     0.00000   0.15730   0.27925   0.00000  Uiso   1.00
C947   C     0.12500   0.01500   0.38575   0.00000  Uiso   1.00
C948   C     0.12500   0.03230   0.40425   0.00000  Uiso   1.00
C949   C     0.00000   0.23500   0.26075   0.00000  Uiso   1.00
C950   C     0.00000   0.21770   0.27925   0.00000  Uiso   1.00
C951   C     0.12500   0.11000   0.38575   0.00000  Uiso   1.00
C952   C     0.12500   0.09270   0.40425   0.00000  Uiso   1.00
O953   O     0.28900   0.04175   0.46043   0.00000  Uiso   1.00
C954   C     0.45200   0.00905   0.49350   0.00000  Uiso   1.00
O955   O     0.41400   0.16675   0.33543   0.00000  Uiso   1.00
C956   C     0.32700   0.13405   0.36850   0.00000  Uiso   1.00
O957   O     0.46100   0.08325   0.46043   0.00000  Uiso   1.00
C958   C     0.29800   0.11595   0.49350   0.00000  Uiso   1.00
O959   O     0.33600   0.20825   0.33543   0.00000  Uiso   1.00
C960   C     0.42300   0.24095   0.36850   0.00000  Uiso   1.00
O961   O     0.46100   0.16675   0.28957   0.00000  Uiso   1.00
C962   C     0.29800   0.13405   0.25650   0.00000  Uiso   1.00
O963   O     0.33600   0.04175   0.41457   0.00000  Uiso   1.00
C964   C     0.42300   0.00905   0.38150   0.00000  Uiso   1.00
O965   O     0.28900   0.20825   0.28957   0.00000  Uiso   1.00
C966   C     0.45200   0.24095   0.25650   0.00000  Uiso   1.00
O967   O     0.41400   0.08325   0.41457   0.00000  Uiso   1.00
C968   C     0.32700   0.11595   0.38150   0.00000  Uiso   1.00
O969   O     0.46100   0.20825   0.28957   0.00000  Uiso   1.00
C970   C     0.29800   0.24095   0.25650   0.00000  Uiso   1.00
O971   O     0.33600   0.08325   0.41457   0.00000  Uiso   1.00
C972   C     0.42300   0.11595   0.38150   0.00000  Uiso   1.00
O973   O     0.28900   0.16675   0.28957   0.00000  Uiso   1.00
C974   C     0.45200   0.13405   0.25650   0.00000  Uiso   1.00
O975   O     0.41400   0.04175   0.41457   0.00000  Uiso   1.00
C976   C     0.32700   0.00905   0.38150   0.00000  Uiso   1.00
O977   O     0.28900   0.08325   0.46043   0.00000  Uiso   1.00
C978   C     0.45200   0.11595   0.49350   0.00000  Uiso   1.00
O979   O     0.41400   0.20825   0.33543   0.00000  Uiso   1.00
C980   C     0.32700   0.24095   0.36850   0.00000  Uiso   1.00
O981   O     0.46100   0.04175   0.46043   0.00000  Uiso   1.00
C982   C     0.29800   0.00905   0.49350   0.00000  Uiso   1.00
O983   O     0.33600   0.16675   0.33543   0.00000  Uiso   1.00
C984   C     0.42300   0.13405   0.36850   0.00000  Uiso   1.00
Al985  Al    0.31250   0.06250   0.43750   0.00000  Uiso   1.00
Al986  Al    0.43750   0.06250   0.43750   0.00000  Uiso   1.00
Al987  Al    0.43750   0.18750   0.31250   0.00000  Uiso   1.00
Al988  Al    0.31250   0.18750   0.31250   0.00000  Uiso   1.00
O989   O     0.25000   0.06250   0.42325   0.00000  Uiso   1.00
O990   O     0.37500   0.18750   0.29825   0.00000  Uiso   1.00
O991   O     0.25000   0.18750   0.32675   0.00000  Uiso   1.00
O992   O     0.37500   0.06250   0.45175   0.00000  Uiso   1.00
C993   C     0.25000   0.01500   0.48925   0.00000  Uiso   1.00
C994   C     0.25000   0.03230   0.47075   0.00000  Uiso   1.00
C995   C     0.37500   0.14000   0.36425   0.00000  Uiso   1.00
C996   C     0.37500   0.15730   0.34575   0.00000  Uiso   1.00
C997   C     0.25000   0.11000   0.48925   0.00000  Uiso   1.00
C998   C     0.25000   0.09270   0.47075   0.00000  Uiso   1.00
C999   C     0.37500   0.23500   0.36425   0.00000  Uiso   1.00
C1000  C     0.37500   0.21770   0.34575   0.00000  Uiso   1.00
C1001  C     0.25000   0.14000   0.26075   0.00000  Uiso   1.00
C1002  C     0.25000   0.15730   0.27925   0.00000  Uiso   1.00
C1003  C     0.37500   0.01500   0.38575   0.00000  Uiso   1.00
C1004  C     0.37500   0.03230   0.40425   0.00000  Uiso   1.00
C1005  C     0.25000   0.23500   0.26075   0.00000  Uiso   1.00
C1006  C     0.25000   0.21770   0.27925   0.00000  Uiso   1.00
C1007  C     0.37500   0.11000   0.38575   0.00000  Uiso   1.00
C1008  C     0.37500   0.09270   0.40425   0.00000  Uiso   1.00
O1009  O     0.53900   0.04175   0.46043   0.00000  Uiso   1.00
C1010  C     0.70200   0.00905   0.49350   0.00000  Uiso   1.00
O1011  O     0.66400   0.16675   0.33543   0.00000  Uiso   1.00
C1012  C     0.57700   0.13405   0.36850   0.00000  Uiso   1.00
O1013  O     0.71100   0.08325   0.46043   0.00000  Uiso   1.00
C1014  C     0.54800   0.11595   0.49350   0.00000  Uiso   1.00
O1015  O     0.58600   0.20825   0.33543   0.00000  Uiso   1.00
C1016  C     0.67300   0.24095   0.36850   0.00000  Uiso   1.00
O1017  O     0.71100   0.16675   0.28957   0.00000  Uiso   1.00
C1018  C     0.54800   0.13405   0.25650   0.00000  Uiso   1.00
O1019  O     0.58600   0.04175   0.41457   0.00000  Uiso   1.00
C1020  C     0.67300   0.00905   0.38150   0.00000  Uiso   1.00
O1021  O     0.53900   0.20825   0.28957   0.00000  Uiso   1.00
C1022  C     0.70200   0.24095   0.25650   0.00000  Uiso   1.00
O1023  O     0.66400   0.08325   0.41457   0.00000  Uiso   1.00
C1024  C     0.57700   0.11595   0.38150   0.00000  Uiso   1.00
O1025  O     0.71100   0.20825   0.28957   0.00000  Uiso   1.00
C1026  C     0.54800   0.24095   0.25650   0.00000  Uiso   1.00
O1027  O     0.58600   0.08325   0.41457   0.00000  Uiso   1.00
C1028  C     0.67300   0.11595   0.38150   0.00000  Uiso   1.00
O1029  O     0.53900   0.16675   0.28957   0.00000  Uiso   1.00
C1030  C     0.70200   0.13405   0.25650   0.00000  Uiso   1.00
O1031  O     0.66400   0.04175   0.41457   0.00000  Uiso   1.00
C1032  C     0.57700   0.00905   0.38150   0.00000  Uiso   1.00
O1033  O     0.53900   0.08325   0.46043   0.00000  Uiso   1.00
C1034  C     0.70200   0.11595   0.49350   0.00000  Uiso   1.00
O1035  O     0.66400   0.20825   0.33543   0.00000  Uiso   1.00
C1036  C     0.57700   0.24095   0.36850   0.00000  Uiso   1.00
O1037  O     0.71100   0.04175   0.46043   0.00000  Uiso   1.00
C1038  C     0.54800   0.00905   0.49350   0.00000  Uiso   1.00
O1039  O     0.58600   0.16675   0.33543   0.00000  Uiso   1.00
C1040  C     0.67300   0.13405   0.36850   0.00000  Uiso   1.00
Al1041 Al    0.56250   0.06250   0.43750   0.00000  Uiso   1.00
Al1042 Al    0.68750   0.06250   0.43750   0.00000  Uiso   1.00
Al1043 Al    0.68750   0.18750   0.31250   0.00000  Uiso   1.00
Al1044 Al    0.56250   0.18750   0.31250   0.00000  Uiso   1.00
O1045  O     0.50000   0.06250   0.42325   0.00000  Uiso   1.00
O1046  O     0.62500   0.18750   0.29825   0.00000  Uiso   1.00
O1047  O     0.50000   0.18750   0.32675   0.00000  Uiso   1.00
O1048  O     0.62500   0.06250   0.45175   0.00000  Uiso   1.00
C1049  C     0.50000   0.01500   0.48925   0.00000  Uiso   1.00
C1050  C     0.50000   0.03230   0.47075   0.00000  Uiso   1.00
C1051  C     0.62500   0.14000   0.36425   0.00000  Uiso   1.00
C1052  C     0.62500   0.15730   0.34575   0.00000  Uiso   1.00
C1053  C     0.50000   0.11000   0.48925   0.00000  Uiso   1.00
C1054  C     0.50000   0.09270   0.47075   0.00000  Uiso   1.00
C1055  C     0.62500   0.23500   0.36425   0.00000  Uiso   1.00
C1056  C     0.62500   0.21770   0.34575   0.00000  Uiso   1.00
C1057  C     0.50000   0.14000   0.26075   0.00000  Uiso   1.00
C1058  C     0.50000   0.15730   0.27925   0.00000  Uiso   1.00
C1059  C     0.62500   0.01500   0.38575   0.00000  Uiso   1.00
C1060  C     0.62500   0.03230   0.40425   0.00000  Uiso   1.00
C1061  C     0.50000   0.23500   0.26075   0.00000  Uiso   1.00
C1062  C     0.50000   0.21770   0.27925   0.00000  Uiso   1.00
C1063  C     0.62500   0.11000   0.38575   0.00000  Uiso   1.00
C1064  C     0.62500   0.09270   0.40425   0.00000  Uiso   1.00
O1065  O     0.78900   0.04175   0.46043   0.00000  Uiso   1.00
C1066  C     0.95200   0.00905   0.49350   0.00000  Uiso   1.00
O1067  O     0.91400   0.16675   0.33543   0.00000  Uiso   1.00
C1068  C     0.82700   0.13405   0.36850   0.00000  Uiso   1.00
O1069  O     0.96100   0.08325   0.46043   0.00000  Uiso   1.00
C1070  C     0.79800   0.11595   0.49350   0.00000  Uiso   1.00
O1071  O     0.83600   0.20825   0.33543   0.00000  Uiso   1.00
C1072  C     0.92300   0.24095   0.36850   0.00000  Uiso   1.00
O1073  O     0.96100   0.16675   0.28957   0.00000  Uiso   1.00
C1074  C     0.79800   0.13405   0.25650   0.00000  Uiso   1.00
O1075  O     0.83600   0.04175   0.41457   0.00000  Uiso   1.00
C1076  C     0.92300   0.00905   0.38150   0.00000  Uiso   1.00
O1077  O     0.78900   0.20825   0.28957   0.00000  Uiso   1.00
C1078  C     0.95200   0.24095   0.25650   0.00000  Uiso   1.00
O1079  O     0.91400   0.08325   0.41457   0.00000  Uiso   1.00
C1080  C     0.82700   0.11595   0.38150   0.00000  Uiso   1.00
O1081  O     0.96100   0.20825   0.28957   0.00000  Uiso   1.00
C1082  C     0.79800   0.24095   0.25650   0.00000  Uiso   1.00
O1083  O     0.83600   0.08325   0.41457   0.00000  Uiso   1.00
C1084  C     0.92300   0.11595   0.38150   0.00000  Uiso   1.00
O1085  O     0.78900   0.16675   0.28957   0.00000  Uiso   1.00
C1086  C     0.95200   0.13405   0.25650   0.00000  Uiso   1.00
O1087  O     0.91400   0.04175   0.41457   0.00000  Uiso   1.00
C1088  C     0.82700   0.00905   0.38150   0.00000  Uiso   1.00
O1089  O     0.78900   0.08325   0.46043   0.00000  Uiso   1.00
C1090  C     0.95200   0.11595   0.49350   0.00000  Uiso   1.00
O1091  O     0.91400   0.20825   0.33543   0.00000  Uiso   1.00
C1092  C     0.82700   0.24095   0.36850   0.00000  Uiso   1.00
O1093  O     0.96100   0.04175   0.46043   0.00000  Uiso   1.00
C1094  C     0.79800   0.00905   0.49350   0.00000  Uiso   1.00
O1095  O     0.83600   0.16675   0.33543   0.00000  Uiso   1.00
C1096  C     0.92300   0.13405   0.36850   0.00000  Uiso   1.00
Al1097 Al    0.81250   0.06250   0.43750   0.00000  Uiso   1.00
Al1098 Al    0.93750   0.06250   0.43750   0.00000  Uiso   1.00
Al1099 Al    0.93750   0.18750   0.31250   0.00000  Uiso   1.00
Al1100 Al    0.81250   0.18750   0.31250   0.00000  Uiso   1.00
O1101  O     0.75000   0.06250   0.42325   0.00000  Uiso   1.00
O1102  O     0.87500   0.18750   0.29825   0.00000  Uiso   1.00
O1103  O     0.75000   0.18750   0.32675   0.00000  Uiso   1.00
O1104  O     0.87500   0.06250   0.45175   0.00000  Uiso   1.00
C1105  C     0.75000   0.01500   0.48925   0.00000  Uiso   1.00
C1106  C     0.75000   0.03230   0.47075   0.00000  Uiso   1.00
C1107  C     0.87500   0.14000   0.36425   0.00000  Uiso   1.00
C1108  C     0.87500   0.15730   0.34575   0.00000  Uiso   1.00
C1109  C     0.75000   0.11000   0.48925   0.00000  Uiso   1.00
C1110  C     0.75000   0.09270   0.47075   0.00000  Uiso   1.00
C1111  C     0.87500   0.23500   0.36425   0.00000  Uiso   1.00
C1112  C     0.87500   0.21770   0.34575   0.00000  Uiso   1.00
C1113  C     0.75000   0.14000   0.26075   0.00000  Uiso   1.00
C1114  C     0.75000   0.15730   0.27925   0.00000  Uiso   1.00
C1115  C     0.87500   0.01500   0.38575   0.00000  Uiso   1.00
C1116  C     0.87500   0.03230   0.40425   0.00000  Uiso   1.00
C1117  C     0.75000   0.23500   0.26075   0.00000  Uiso   1.00
C1118  C     0.75000   0.21770   0.27925   0.00000  Uiso   1.00
C1119  C     0.87500   0.11000   0.38575   0.00000  Uiso   1.00
C1120  C     0.87500   0.09270   0.40425   0.00000  Uiso   1.00
O1121  O     0.03900   0.29175   0.46043   0.00000  Uiso   1.00
C1122  C     0.20200   0.25905   0.49350   0.00000  Uiso   1.00
O1123  O     0.16400   0.41675   0.33543   0.00000  Uiso   1.00
C1124  C     0.07700   0.38405   0.36850   0.00000  Uiso   1.00
O1125  O     0.21100   0.33325   0.46043   0.00000  Uiso   1.00
C1126  C     0.04800   0.36595   0.49350   0.00000  Uiso   1.00
O1127  O     0.08600   0.45825   0.33543   0.00000  Uiso   1.00
C1128  C     0.17300   0.49095   0.36850   0.00000  Uiso   1.00
O1129  O     0.21100   0.41675   0.28957   0.00000  Uiso   1.00
C1130  C     0.04800   0.38405   0.25650   0.00000  Uiso   1.00
O1131  O     0.08600   0.29175   0.41457   0.00000  Uiso   1.00
C1132  C     0.17300   0.25905   0.38150   0.00000  Uiso   1.00
O1133  O     0.03900   0.45825   0.28957   0.00000  Uiso   1.00
C1134  C     0.20200   0.49095   0.25650   0.00000  Uiso   1.00
O1135  O     0.16400   0.33325   0.41457   0.00000  Uiso   1.00
C1136  C     0.07700   0.36595   0.38150   0.00000  Uiso   1.00
O1137  O     0.21100   0.45825   0.28957   0.00000  Uiso   1.00
C1138  C     0.04800   0.49095   0.25650   0.00000  Uiso   1.00
O1139  O     0.08600   0.33325   0.41457   0.00000  Uiso   1.00
C1140  C     0.17300   0.36595   0.38150   0.00000  Uiso   1.00
O1141  O     0.03900   0.41675   0.28957   0.00000  Uiso   1.00
C1142  C     0.20200   0.38405   0.25650   0.00000  Uiso   1.00
O1143  O     0.16400   0.29175   0.41457   0.00000  Uiso   1.00
C1144  C     0.07700   0.25905   0.38150   0.00000  Uiso   1.00
O1145  O     0.03900   0.33325   0.46043   0.00000  Uiso   1.00
C1146  C     0.20200   0.36595   0.49350   0.00000  Uiso   1.00
O1147  O     0.16400   0.45825   0.33543   0.00000  Uiso   1.00
C1148  C     0.07700   0.49095   0.36850   0.00000  Uiso   1.00
O1149  O     0.21100   0.29175   0.46043   0.00000  Uiso   1.00
C1150  C     0.04800   0.25905   0.49350   0.00000  Uiso   1.00
O1151  O     0.08600   0.41675   0.33543   0.00000  Uiso   1.00
C1152  C     0.17300   0.38405   0.36850   0.00000  Uiso   1.00
Al1153 Al    0.06250   0.31250   0.43750   0.00000  Uiso   1.00
Al1154 Al    0.18750   0.31250   0.43750   0.00000  Uiso   1.00
Al1155 Al    0.18750   0.43750   0.31250   0.00000  Uiso   1.00
Al1156 Al    0.06250   0.43750   0.31250   0.00000  Uiso   1.00
O1157  O     0.00000   0.31250   0.42325   0.00000  Uiso   1.00
O1158  O     0.12500   0.43750   0.29825   0.00000  Uiso   1.00
O1159  O     0.00000   0.43750   0.32675   0.00000  Uiso   1.00
O1160  O     0.12500   0.31250   0.45175   0.00000  Uiso   1.00
C1161  C     0.00000   0.26500   0.48925   0.00000  Uiso   1.00
C1162  C     0.00000   0.28230   0.47075   0.00000  Uiso   1.00
C1163  C     0.12500   0.39000   0.36425   0.00000  Uiso   1.00
C1164  C     0.12500   0.40730   0.34575   0.00000  Uiso   1.00
C1165  C     0.00000   0.36000   0.48925   0.00000  Uiso   1.00
C1166  C     0.00000   0.34270   0.47075   0.00000  Uiso   1.00
C1167  C     0.12500   0.48500   0.36425   0.00000  Uiso   1.00
C1168  C     0.12500   0.46770   0.34575   0.00000  Uiso   1.00
C1169  C     0.00000   0.39000   0.26075   0.00000  Uiso   1.00
C1170  C     0.00000   0.40730   0.27925   0.00000  Uiso   1.00
C1171  C     0.12500   0.26500   0.38575   0.00000  Uiso   1.00
C1172  C     0.12500   0.28230   0.40425   0.00000  Uiso   1.00
C1173  C     0.00000   0.48500   0.26075   0.00000  Uiso   1.00
C1174  C     0.00000   0.46770   0.27925   0.00000  Uiso   1.00
C1175  C     0.12500   0.36000   0.38575   0.00000  Uiso   1.00
C1176  C     0.12500   0.34270   0.40425   0.00000  Uiso   1.00
O1177  O     0.28900   0.29175   0.46043   0.00000  Uiso   1.00
C1178  C     0.45200   0.25905   0.49350   0.00000  Uiso   1.00
O1179  O     0.41400   0.41675   0.33543   0.00000  Uiso   1.00
C1180  C     0.32700   0.38405   0.36850   0.00000  Uiso   1.00
O1181  O     0.46100   0.33325   0.46043   0.00000  Uiso   1.00
C1182  C     0.29800   0.36595   0.49350   0.00000  Uiso   1.00
O1183  O     0.33600   0.45825   0.33543   0.00000  Uiso   1.00
C1184  C     0.42300   0.49095   0.36850   0.00000  Uiso   1.00
O1185  O     0.46100   0.41675   0.28957   0.00000  Uiso   1.00
C1186  C     0.29800   0.38405   0.25650   0.00000  Uiso   1.00
O1187  O     0.33600   0.29175   0.41457   0.00000  Uiso   1.00
C1188  C     0.42300   0.25905   0.38150   0.00000  Uiso   1.00
O1189  O     0.28900   0.45825   0.28957   0.00000  Uiso   1.00
C1190  C     0.45200   0.49095   0.25650   0.00000  Uiso   1.00
O1191  O     0.41400   0.33325   0.41457   0.00000  Uiso   1.00
C1192  C     0.32700   0.36595   0.38150   0.00000  Uiso   1.00
O1193  O     0.46100   0.45825   0.28957   0.00000  Uiso   1.00
C1194  C     0.29800   0.49095   0.25650   0.00000  Uiso   1.00
O1195  O     0.33600   0.33325   0.41457   0.00000  Uiso   1.00
C1196  C     0.42300   0.36595   0.38150   0.00000  Uiso   1.00
O1197  O     0.28900   0.41675   0.28957   0.00000  Uiso   1.00
C1198  C     0.45200   0.38405   0.25650   0.00000  Uiso   1.00
O1199  O     0.41400   0.29175   0.41457   0.00000  Uiso   1.00
C1200  C     0.32700   0.25905   0.38150   0.00000  Uiso   1.00
O1201  O     0.28900   0.33325   0.46043   0.00000  Uiso   1.00
C1202  C     0.45200   0.36595   0.49350   0.00000  Uiso   1.00
O1203  O     0.41400   0.45825   0.33543   0.00000  Uiso   1.00
C1204  C     0.32700   0.49095   0.36850   0.00000  Uiso   1.00
O1205  O     0.46100   0.29175   0.46043   0.00000  Uiso   1.00
C1206  C     0.29800   0.25905   0.49350   0.00000  Uiso   1.00
O1207  O     0.33600   0.41675   0.33543   0.00000  Uiso   1.00
C1208  C     0.42300   0.38405   0.36850   0.00000  Uiso   1.00
Al1209 Al    0.31250   0.31250   0.43750   0.00000  Uiso   1.00
Al1210 Al    0.43750   0.31250   0.43750   0.00000  Uiso   1.00
Al1211 Al    0.43750   0.43750   0.31250   0.00000  Uiso   1.00
Al1212 Al    0.31250   0.43750   0.31250   0.00000  Uiso   1.00
O1213  O     0.25000   0.31250   0.42325   0.00000  Uiso   1.00
O1214  O     0.37500   0.43750   0.29825   0.00000  Uiso   1.00
O1215  O     0.25000   0.43750   0.32675   0.00000  Uiso   1.00
O1216  O     0.37500   0.31250   0.45175   0.00000  Uiso   1.00
C1217  C     0.25000   0.26500   0.48925   0.00000  Uiso   1.00
C1218  C     0.25000   0.28230   0.47075   0.00000  Uiso   1.00
C1219  C     0.37500   0.39000   0.36425   0.00000  Uiso   1.00
C1220  C     0.37500   0.40730   0.34575   0.00000  Uiso   1.00
C1221  C     0.25000   0.36000   0.48925   0.00000  Uiso   1.00
C1222  C     0.25000   0.34270   0.47075   0.00000  Uiso   1.00
C1223  C     0.37500   0.48500   0.36425   0.00000  Uiso   1.00
C1224  C     0.37500   0.46770   0.34575   0.00000  Uiso   1.00
C1225  C     0.25000   0.39000   0.26075   0.00000  Uiso   1.00
C1226  C     0.25000   0.40730   0.27925   0.00000  Uiso   1.00
C1227  C     0.37500   0.26500   0.38575   0.00000  Uiso   1.00
C1228  C     0.37500   0.28230   0.40425   0.00000  Uiso   1.00
C1229  C     0.25000   0.48500   0.26075   0.00000  Uiso   1.00
C1230  C     0.25000   0.46770   0.27925   0.00000  Uiso   1.00
C1231  C     0.37500   0.36000   0.38575   0.00000  Uiso   1.00
C1232  C     0.37500   0.34270   0.40425   0.00000  Uiso   1.00
O1233  O     0.53900   0.29175   0.46043   0.00000  Uiso   1.00
C1234  C     0.70200   0.25905   0.49350   0.00000  Uiso   1.00
O1235  O     0.66400   0.41675   0.33543   0.00000  Uiso   1.00
C1236  C     0.57700   0.38405   0.36850   0.00000  Uiso   1.00
O1237  O     0.71100   0.33325   0.46043   0.00000  Uiso   1.00
C1238  C     0.54800   0.36595   0.49350   0.00000  Uiso   1.00
O1239  O     0.58600   0.45825   0.33543   0.00000  Uiso   1.00
C1240  C     0.67300   0.49095   0.36850   0.00000  Uiso   1.00
O1241  O     0.71100   0.41675   0.28957   0.00000  Uiso   1.00
C1242  C     0.54800   0.38405   0.25650   0.00000  Uiso   1.00
O1243  O     0.58600   0.29175   0.41457   0.00000  Uiso   1.00
C1244  C     0.67300   0.25905   0.38150   0.00000  Uiso   1.00
O1245  O     0.53900   0.45825   0.28957   0.00000  Uiso   1.00
C1246  C     0.70200   0.49095   0.25650   0.00000  Uiso   1.00
O1247  O     0.66400   0.33325   0.41457   0.00000  Uiso   1.00
C1248  C     0.57700   0.36595   0.38150   0.00000  Uiso   1.00
O1249  O     0.71100   0.45825   0.28957   0.00000  Uiso   1.00
C1250  C     0.54800   0.49095   0.25650   0.00000  Uiso   1.00
O1251  O     0.58600   0.33325   0.41457   0.00000  Uiso   1.00
C1252  C     0.67300   0.36595   0.38150   0.00000  Uiso   1.00
O1253  O     0.53900   0.41675   0.28957   0.00000  Uiso   1.00
C1254  C     0.70200   0.38405   0.25650   0.00000  Uiso   1.00
O1255  O     0.66400   0.29175   0.41457   0.00000  Uiso   1.00
C1256  C     0.57700   0.25905   0.38150   0.00000  Uiso   1.00
O1257  O     0.53900   0.33325   0.46043   0.00000  Uiso   1.00
C1258  C     0.70200   0.36595   0.49350   0.00000  Uiso   1.00
O1259  O     0.66400   0.45825   0.33543   0.00000  Uiso   1.00
C1260  C     0.57700   0.49095   0.36850   0.00000  Uiso   1.00
O1261  O     0.71100   0.29175   0.46043   0.00000  Uiso   1.00
C1262  C     0.54800   0.25905   0.49350   0.00000  Uiso   1.00
O1263  O     0.58600   0.41675   0.33543   0.00000  Uiso   1.00
C1264  C     0.67300   0.38405   0.36850   0.00000  Uiso   1.00
Al1265 Al    0.56250   0.31250   0.43750   0.00000  Uiso   1.00
Al1266 Al    0.68750   0.31250   0.43750   0.00000  Uiso   1.00
Al1267 Al    0.68750   0.43750   0.31250   0.00000  Uiso   1.00
Al1268 Al    0.56250   0.43750   0.31250   0.00000  Uiso   1.00
O1269  O     0.50000   0.31250   0.42325   0.00000  Uiso   1.00
O1270  O     0.62500   0.43750   0.29825   0.00000  Uiso   1.00
O1271  O     0.50000   0.43750   0.32675   0.00000  Uiso   1.00
O1272  O     0.62500   0.31250   0.45175   0.00000  Uiso   1.00
C1273  C     0.50000   0.26500   0.48925   0.00000  Uiso   1.00
C1274  C     0.50000   0.28230   0.47075   0.00000  Uiso   1.00
C1275  C     0.62500   0.39000   0.36425   0.00000  Uiso   1.00
C1276  C     0.62500   0.40730   0.34575   0.00000  Uiso   1.00
C1277  C     0.50000   0.36000   0.48925   0.00000  Uiso   1.00
C1278  C     0.50000   0.34270   0.47075   0.00000  Uiso   1.00
C1279  C     0.62500   0.48500   0.36425   0.00000  Uiso   1.00
C1280  C     0.62500   0.46770   0.34575   0.00000  Uiso   1.00
C1281  C     0.50000   0.39000   0.26075   0.00000  Uiso   1.00
C1282  C     0.50000   0.40730   0.27925   0.00000  Uiso   1.00
C1283  C     0.62500   0.26500   0.38575   0.00000  Uiso   1.00
C1284  C     0.62500   0.28230   0.40425   0.00000  Uiso   1.00
C1285  C     0.50000   0.48500   0.26075   0.00000  Uiso   1.00
C1286  C     0.50000   0.46770   0.27925   0.00000  Uiso   1.00
C1287  C     0.62500   0.36000   0.38575   0.00000  Uiso   1.00
C1288  C     0.62500   0.34270   0.40425   0.00000  Uiso   1.00
O1289  O     0.78900   0.29175   0.46043   0.00000  Uiso   1.00
C1290  C     0.95200   0.25905   0.49350   0.00000  Uiso   1.00
O1291  O     0.91400   0.41675   0.33543   0.00000  Uiso   1.00
C1292  C     0.82700   0.38405   0.36850   0.00000  Uiso   1.00
O1293  O     0.96100   0.33325   0.46043   0.00000  Uiso   1.00
C1294  C     0.79800   0.36595   0.49350   0.00000  Uiso   1.00
O1295  O     0.83600   0.45825   0.33543   0.00000  Uiso   1.00
C1296  C     0.92300   0.49095   0.36850   0.00000  Uiso   1.00
O1297  O     0.96100   0.41675   0.28957   0.00000  Uiso   1.00
C1298  C     0.79800   0.38405   0.25650   0.00000  Uiso   1.00
O1299  O     0.83600   0.29175   0.41457   0.00000  Uiso   1.00
C1300  C     0.92300   0.25905   0.38150   0.00000  Uiso   1.00
O1301  O     0.78900   0.45825   0.28957   0.00000  Uiso   1.00
C1302  C     0.95200   0.49095   0.25650   0.00000  Uiso   1.00
O1303  O     0.91400   0.33325   0.41457   0.00000  Uiso   1.00
C1304  C     0.82700   0.36595   0.38150   0.00000  Uiso   1.00
O1305  O     0.96100   0.45825   0.28957   0.00000  Uiso   1.00
C1306  C     0.79800   0.49095   0.25650   0.00000  Uiso   1.00
O1307  O     0.83600   0.33325   0.41457   0.00000  Uiso   1.00
C1308  C     0.92300   0.36595   0.38150   0.00000  Uiso   1.00
O1309  O     0.78900   0.41675   0.28957   0.00000  Uiso   1.00
C1310  C     0.95200   0.38405   0.25650   0.00000  Uiso   1.00
O1311  O     0.91400   0.29175   0.41457   0.00000  Uiso   1.00
C1312  C     0.82700   0.25905   0.38150   0.00000  Uiso   1.00
O1313  O     0.78900   0.33325   0.46043   0.00000  Uiso   1.00
C1314  C     0.95200   0.36595   0.49350   0.00000  Uiso   1.00
O1315  O     0.91400   0.45825   0.33543   0.00000  Uiso   1.00
C1316  C     0.82700   0.49095   0.36850   0.00000  Uiso   1.00
O1317  O     0.96100   0.29175   0.46043   0.00000  Uiso   1.00
C1318  C     0.79800   0.25905   0.49350   0.00000  Uiso   1.00
O1319  O     0.83600   0.41675   0.33543   0.00000  Uiso   1.00
C1320  C     0.92300   0.38405   0.36850   0.00000  Uiso   1.00
Al1321 Al    0.81250   0.31250   0.43750   0.00000  Uiso   1.00
Al1322 Al    0.93750   0.31250   0.43750   0.00000  Uiso   1.00
Al1323 Al    0.93750   0.43750   0.31250   0.00000  Uiso   1.00
Al1324 Al    0.81250   0.43750   0.31250   0.00000  Uiso   1.00
O1325  O     0.75000   0.31250   0.42325   0.00000  Uiso   1.00
O1326  O     0.87500   0.43750   0.29825   0.00000  Uiso   1.00
O1327  O     0.75000   0.43750   0.32675   0.00000  Uiso   1.00
O1328  O     0.87500   0.31250   0.45175   0.00000  Uiso   1.00
C1329  C     0.75000   0.26500   0.48925   0.00000  Uiso   1.00
C1330  C     0.75000   0.28230   0.47075   0.00000  Uiso   1.00
C1331  C     0.87500   0.39000   0.36425   0.00000  Uiso   1.00
C1332  C     0.87500   0.40730   0.34575   0.00000  Uiso   1.00
C1333  C     0.75000   0.36000   0.48925   0.00000  Uiso   1.00
C1334  C     0.75000   0.34270   0.47075   0.00000  Uiso   1.00
C1335  C     0.87500   0.48500   0.36425   0.00000  Uiso   1.00
C1336  C     0.87500   0.46770   0.34575   0.00000  Uiso   1.00
C1337  C     0.75000   0.39000   0.26075   0.00000  Uiso   1.00
C1338  C     0.75000   0.40730   0.27925   0.00000  Uiso   1.00
C1339  C     0.87500   0.26500   0.38575   0.00000  Uiso   1.00
C1340  C     0.87500   0.28230   0.40425   0.00000  Uiso   1.00
C1341  C     0.75000   0.48500   0.26075   0.00000  Uiso   1.00
C1342  C     0.75000   0.46770   0.27925   0.00000  Uiso   1.00
C1343  C     0.87500   0.36000   0.38575   0.00000  Uiso   1.00
C1344  C     0.87500   0.34270   0.40425   0.00000  Uiso   1.00
O1345  O     0.03900   0.54175   0.46043   0.00000  Uiso   1.00
C1346  C     0.20200   0.50905   0.49350   0.00000  Uiso   1.00
O1347  O     0.16400   0.66675   0.33543   0.00000  Uiso   1.00
C1348  C     0.07700   0.63405   0.36850   0.00000  Uiso   1.00
O1349  O     0.21100   0.58325   0.46043   0.00000  Uiso   1.00
C1350  C     0.04800   0.61595   0.49350   0.00000  Uiso   1.00
O1351  O     0.08600   0.70825   0.33543   0.00000  Uiso   1.00
C1352  C     0.17300   0.74095   0.36850   0.00000  Uiso   1.00
O1353  O     0.21100   0.66675   0.28957   0.00000  Uiso   1.00
C1354  C     0.04800   0.63405   0.25650   0.00000  Uiso   1.00
O1355  O     0.08600   0.54175   0.41457   0.00000  Uiso   1.00
C1356  C     0.17300   0.50905   0.38150   0.00000  Uiso   1.00
O1357  O     0.03900   0.70825   0.28957   0.00000  Uiso   1.00
C1358  C     0.20200   0.74095   0.25650   0.00000  Uiso   1.00
O1359  O     0.16400   0.58325   0.41457   0.00000  Uiso   1.00
C1360  C     0.07700   0.61595   0.38150   0.00000  Uiso   1.00
O1361  O     0.21100   0.70825   0.28957   0.00000  Uiso   1.00
C1362  C     0.04800   0.74095   0.25650   0.00000  Uiso   1.00
O1363  O     0.08600   0.58325   0.41457   0.00000  Uiso   1.00
C1364  C     0.17300   0.61595   0.38150   0.00000  Uiso   1.00
O1365  O     0.03900   0.66675   0.28957   0.00000  Uiso   1.00
C1366  C     0.20200   0.63405   0.25650   0.00000  Uiso   1.00
O1367  O     0.16400   0.54175   0.41457   0.00000  Uiso   1.00
C1368  C     0.07700   0.50905   0.38150   0.00000  Uiso   1.00
O1369  O     0.03900   0.58325   0.46043   0.00000  Uiso   1.00
C1370  C     0.20200   0.61595   0.49350   0.00000  Uiso   1.00
O1371  O     0.16400   0.70825   0.33543   0.00000  Uiso   1.00
C1372  C     0.07700   0.74095   0.36850   0.00000  Uiso   1.00
O1373  O     0.21100   0.54175   0.46043   0.00000  Uiso   1.00
C1374  C     0.04800   0.50905   0.49350   0.00000  Uiso   1.00
O1375  O     0.08600   0.66675   0.33543   0.00000  Uiso   1.00
C1376  C     0.17300   0.63405   0.36850   0.00000  Uiso   1.00
Al1377 Al    0.06250   0.56250   0.43750   0.00000  Uiso   1.00
Al1378 Al    0.18750   0.56250   0.43750   0.00000  Uiso   1.00
Al1379 Al    0.18750   0.68750   0.31250   0.00000  Uiso   1.00
Al1380 Al    0.06250   0.68750   0.31250   0.00000  Uiso   1.00
O1381  O     0.00000   0.56250   0.42325   0.00000  Uiso   1.00
O1382  O     0.12500   0.68750   0.29825   0.00000  Uiso   1.00
O1383  O     0.00000   0.68750   0.32675   0.00000  Uiso   1.00
O1384  O     0.12500   0.56250   0.45175   0.00000  Uiso   1.00
C1385  C     0.00000   0.51500   0.48925   0.00000  Uiso   1.00
C1386  C     0.00000   0.53230   0.47075   0.00000  Uiso   1.00
C1387  C     0.12500   0.64000   0.36425   0.00000  Uiso   1.00
C1388  C     0.12500   0.65730   0.34575   0.00000  Uiso   1.00
C1389  C     0.00000   0.61000   0.48925   0.00000  Uiso   1.00
C1390  C     0.00000   0.59270   0.47075   0.00000  Uiso   1.00
C1391  C     0.12500   0.73500   0.36425   0.00000  Uiso   1.00
C1392  C     0.12500   0.71770   0.34575   0.00000  Uiso   1.00
C1393  C     0.00000   0.64000   0.26075   0.00000  Uiso   1.00
C1394  C     0.00000   0.65730   0.27925   0.00000  Uiso   1.00
C1395  C     0.12500   0.51500   0.38575   0.00000  Uiso   1.00
C1396  C     0.12500   0.53230   0.40425   0.00000  Uiso   1.00
C1397  C     0.00000   0.73500   0.26075   0.00000  Uiso   1.00
C1398  C     0.00000   0.71770   0.27925   0.00000  Uiso   1.00
C1399  C     0.12500   0.61000   0.38575   0.00000  Uiso   1.00
C1400  C     0.12500   0.59270   0.40425   0.00000  Uiso   1.00
O1401  O     0.28900   0.54175   0.46043   0.00000  Uiso   1.00
C1402  C     0.45200   0.50905   0.49350   0.00000  Uiso   1.00
O1403  O     0.41400   0.66675   0.33543   0.00000  Uiso   1.00
C1404  C     0.32700   0.63405   0.36850   0.00000  Uiso   1.00
O1405  O     0.46100   0.58325   0.46043   0.00000  Uiso   1.00
C1406  C     0.29800   0.61595   0.49350   0.00000  Uiso   1.00
O1407  O     0.33600   0.70825   0.33543   0.00000  Uiso   1.00
C1408  C     0.42300   0.74095   0.36850   0.00000  Uiso   1.00
O1409  O     0.46100   0.66675   0.28957   0.00000  Uiso   1.00
C1410  C     0.29800   0.63405   0.25650   0.00000  Uiso   1.00
O1411  O     0.33600   0.54175   0.41457   0.00000  Uiso   1.00
C1412  C     0.42300   0.50905   0.38150   0.00000  Uiso   1.00
O1413  O     0.28900   0.70825   0.28957   0.00000  Uiso   1.00
C1414  C     0.45200   0.74095   0.25650   0.00000  Uiso   1.00
O1415  O     0.41400   0.58325   0.41457   0.00000  Uiso   1.00
C1416  C     0.32700   0.61595   0.38150   0.00000  Uiso   1.00
O1417  O     0.46100   0.70825   0.28957   0.00000  Uiso   1.00
C1418  C     0.29800   0.74095   0.25650   0.00000  Uiso   1.00
O1419  O     0.33600   0.58325   0.41457   0.00000  Uiso   1.00
C1420  C     0.42300   0.61595   0.38150   0.00000  Uiso   1.00
O1421  O     0.28900   0.66675   0.28957   0.00000  Uiso   1.00
C1422  C     0.45200   0.63405   0.25650   0.00000  Uiso   1.00
O1423  O     0.41400   0.54175   0.41457   0.00000  Uiso   1.00
C1424  C     0.32700   0.50905   0.38150   0.00000  Uiso   1.00
O1425  O     0.28900   0.58325   0.46043   0.00000  Uiso   1.00
C1426  C     0.45200   0.61595   0.49350   0.00000  Uiso   1.00
O1427  O     0.41400   0.70825   0.33543   0.00000  Uiso   1.00
C1428  C     0.32700   0.74095   0.36850   0.00000  Uiso   1.00
O1429  O     0.46100   0.54175   0.46043   0.00000  Uiso   1.00
C1430  C     0.29800   0.50905   0.49350   0.00000  Uiso   1.00
O1431  O     0.33600   0.66675   0.33543   0.00000  Uiso   1.00
C1432  C     0.42300   0.63405   0.36850   0.00000  Uiso   1.00
Al1433 Al    0.31250   0.56250   0.43750   0.00000  Uiso   1.00
Al1434 Al    0.43750   0.56250   0.43750   0.00000  Uiso   1.00
Al1435 Al    0.43750   0.68750   0.31250   0.00000  Uiso   1.00
Al1436 Al    0.31250   0.68750   0.31250   0.00000  Uiso   1.00
O1437  O     0.25000   0.56250   0.42325   0.00000  Uiso   1.00
O1438  O     0.37500   0.68750   0.29825   0.00000  Uiso   1.00
O1439  O     0.25000   0.68750   0.32675   0.00000  Uiso   1.00
O1440  O     0.37500   0.56250   0.45175   0.00000  Uiso   1.00
C1441  C     0.25000   0.51500   0.48925   0.00000  Uiso   1.00
C1442  C     0.25000   0.53230   0.47075   0.00000  Uiso   1.00
C1443  C     0.37500   0.64000   0.36425   0.00000  Uiso   1.00
C1444  C     0.37500   0.65730   0.34575   0.00000  Uiso   1.00
C1445  C     0.25000   0.61000   0.48925   0.00000  Uiso   1.00
C1446  C     0.25000   0.59270   0.47075   0.00000  Uiso   1.00
C1447  C     0.37500   0.73500   0.36425   0.00000  Uiso   1.00
C1448  C     0.37500   0.71770   0.34575   0.00000  Uiso   1.00
C1449  C     0.25000   0.64000   0.26075   0.00000  Uiso   1.00
C1450  C     0.25000   0.65730   0.27925   0.00000  Uiso   1.00
C1451  C     0.37500   0.51500   0.38575   0.00000  Uiso   1.00
C1452  C     0.37500   0.53230   0.40425   0.00000  Uiso   1.00
C1453  C     0.25000   0.73500   0.26075   0.00000  Uiso   1.00
C1454  C     0.25000   0.71770   0.27925   0.00000  Uiso   1.00
C1455  C     0.37500   0.61000   0.38575   0.00000  Uiso   1.00
C1456  C     0.37500   0.59270   0.40425   0.00000  Uiso   1.00
O1457  O     0.53900   0.54175   0.46043   0.00000  Uiso   1.00
C1458  C     0.70200   0.50905   0.49350   0.00000  Uiso   1.00
O1459  O     0.66400   0.66675   0.33543   0.00000  Uiso   1.00
C1460  C     0.57700   0.63405   0.36850   0.00000  Uiso   1.00
O1461  O     0.71100   0.58325   0.46043   0.00000  Uiso   1.00
C1462  C     0.54800   0.61595   0.49350   0.00000  Uiso   1.00
O1463  O     0.58600   0.70825   0.33543   0.00000  Uiso   1.00
C1464  C     0.67300   0.74095   0.36850   0.00000  Uiso   1.00
O1465  O     0.71100   0.66675   0.28957   0.00000  Uiso   1.00
C1466  C     0.54800   0.63405   0.25650   0.00000  Uiso   1.00
O1467  O     0.58600   0.54175   0.41457   0.00000  Uiso   1.00
C1468  C     0.67300   0.50905   0.38150   0.00000  Uiso   1.00
O1469  O     0.53900   0.70825   0.28957   0.00000  Uiso   1.00
C1470  C     0.70200   0.74095   0.25650   0.00000  Uiso   1.00
O1471  O     0.66400   0.58325   0.41457   0.00000  Uiso   1.00
C1472  C     0.57700   0.61595   0.38150   0.00000  Uiso   1.00
O1473  O     0.71100   0.70825   0.28957   0.00000  Uiso   1.00
C1474  C     0.54800   0.74095   0.25650   0.00000  Uiso   1.00
O1475  O     0.58600   0.58325   0.41457   0.00000  Uiso   1.00
C1476  C     0.67300   0.61595   0.38150   0.00000  Uiso   1.00
O1477  O     0.53900   0.66675   0.28957   0.00000  Uiso   1.00
C1478  C     0.70200   0.63405   0.25650   0.00000  Uiso   1.00
O1479  O     0.66400   0.54175   0.41457   0.00000  Uiso   1.00
C1480  C     0.57700   0.50905   0.38150   0.00000  Uiso   1.00
O1481  O     0.53900   0.58325   0.46043   0.00000  Uiso   1.00
C1482  C     0.70200   0.61595   0.49350   0.00000  Uiso   1.00
O1483  O     0.66400   0.70825   0.33543   0.00000  Uiso   1.00
C1484  C     0.57700   0.74095   0.36850   0.00000  Uiso   1.00
O1485  O     0.71100   0.54175   0.46043   0.00000  Uiso   1.00
C1486  C     0.54800   0.50905   0.49350   0.00000  Uiso   1.00
O1487  O     0.58600   0.66675   0.33543   0.00000  Uiso   1.00
C1488  C     0.67300   0.63405   0.36850   0.00000  Uiso   1.00
Al1489 Al    0.56250   0.56250   0.43750   0.00000  Uiso   1.00
Al1490 Al    0.68750   0.56250   0.43750   0.00000  Uiso   1.00
Al1491 Al    0.68750   0.68750   0.31250   0.00000  Uiso   1.00
Al1492 Al    0.56250   0.68750   0.31250   0.00000  Uiso   1.00
O1493  O     0.50000   0.56250   0.42325   0.00000  Uiso   1.00
O1494  O     0.62500   0.68750   0.29825   0.00000  Uiso   1.00
O1495  O     0.50000   0.68750   0.32675   0.00000  Uiso   1.00
O1496  O     0.62500   0.56250   0.45175   0.00000  Uiso   1.00
C1497  C     0.50000   0.51500   0.48925   0.00000  Uiso   1.00
C1498  C     0.50000   0.53230   0.47075   0.00000  Uiso   1.00
C1499  C     0.62500   0.64000   0.36425   0.00000  Uiso   1.00
C1500  C     0.62500   0.65730   0.34575   0.00000  Uiso   1.00
C1501  C     0.50000   0.61000   0.48925   0.00000  Uiso   1.00
C1502  C     0.50000   0.59270   0.47075   0.00000  Uiso   1.00
C1503  C     0.62500   0.73500   0.36425   0.00000  Uiso   1.00
C1504  C     0.62500   0.71770   0.34575   0.00000  Uiso   1.00
C1505  C     0.50000   0.64000   0.26075   0.00000  Uiso   1.00
C1506  C     0.50000   0.65730   0.27925   0.00000  Uiso   1.00
C1507  C     0.62500   0.51500   0.38575   0.00000  Uiso   1.00
C1508  C     0.62500   0.53230   0.40425   0.00000  Uiso   1.00
C1509  C     0.50000   0.73500   0.26075   0.00000  Uiso   1.00
C1510  C     0.50000   0.71770   0.27925   0.00000  Uiso   1.00
C1511  C     0.62500   0.61000   0.38575   0.00000  Uiso   1.00
C1512  C     0.62500   0.59270   0.40425   0.00000  Uiso   1.00
O1513  O     0.78900   0.54175   0.46043   0.00000  Uiso   1.00
C1514  C     0.95200   0.50905   0.49350   0.00000  Uiso   1.00
O1515  O     0.91400   0.66675   0.33543   0.00000  Uiso   1.00
C1516  C     0.82700   0.63405   0.36850   0.00000  Uiso   1.00
O1517  O     0.96100   0.58325   0.46043   0.00000  Uiso   1.00
C1518  C     0.79800   0.61595   0.49350   0.00000  Uiso   1.00
O1519  O     0.83600   0.70825   0.33543   0.00000  Uiso   1.00
C1520  C     0.92300   0.74095   0.36850   0.00000  Uiso   1.00
O1521  O     0.96100   0.66675   0.28957   0.00000  Uiso   1.00
C1522  C     0.79800   0.63405   0.25650   0.00000  Uiso   1.00
O1523  O     0.83600   0.54175   0.41457   0.00000  Uiso   1.00
C1524  C     0.92300   0.50905   0.38150   0.00000  Uiso   1.00
O1525  O     0.78900   0.70825   0.28957   0.00000  Uiso   1.00
C1526  C     0.95200   0.74095   0.25650   0.00000  Uiso   1.00
O1527  O     0.91400   0.58325   0.41457   0.00000  Uiso   1.00
C1528  C     0.82700   0.61595   0.38150   0.00000  Uiso   1.00
O1529  O     0.96100   0.70825   0.28957   0.00000  Uiso   1.00
C1530  C     0.79800   0.74095   0.25650   0.00000  Uiso   1.00
O1531  O     0.83600   0.58325   0.41457   0.00000  Uiso   1.00
C1532  C     0.92300   0.61595   0.38150   0.00000  Uiso   1.00
O1533  O     0.78900   0.66675   0.28957   0.00000  Uiso   1.00
C1534  C     0.95200   0.63405   0.25650   0.00000  Uiso   1.00
O1535  O     0.91400   0.54175   0.41457   0.00000  Uiso   1.00
C1536  C     0.82700   0.50905   0.38150   0.00000  Uiso   1.00
O1537  O     0.78900   0.58325   0.46043   0.00000  Uiso   1.00
C1538  C     0.95200   0.61595   0.49350   0.00000  Uiso   1.00
O1539  O     0.91400   0.70825   0.33543   0.00000  Uiso   1.00
C1540  C     0.82700   0.74095   0.36850   0.00000  Uiso   1.00
O1541  O     0.96100   0.54175   0.46043   0.00000  Uiso   1.00
C1542  C     0.79800   0.50905   0.49350   0.00000  Uiso   1.00
O1543  O     0.83600   0.66675   0.33543   0.00000  Uiso   1.00
C1544  C     0.92300   0.63405   0.36850   0.00000  Uiso   1.00
Al1545 Al    0.81250   0.56250   0.43750   0.00000  Uiso   1.00
Al1546 Al    0.93750   0.56250   0.43750   0.00000  Uiso   1.00
Al1547 Al    0.93750   0.68750   0.31250   0.00000  Uiso   1.00
Al1548 Al    0.81250   0.68750   0.31250   0.00000  Uiso   1.00
O1549  O     0.75000   0.56250   0.42325   0.00000  Uiso   1.00
O1550  O     0.87500   0.68750   0.29825   0.00000  Uiso   1.00
O1551  O     0.75000   0.68750   0.32675   0.00000  Uiso   1.00
O1552  O     0.87500   0.56250   0.45175   0.00000  Uiso   1.00
C1553  C     0.75000   0.51500   0.48925   0.00000  Uiso   1.00
C1554  C     0.75000   0.53230   0.47075   0.00000  Uiso   1.00
C1555  C     0.87500   0.64000   0.36425   0.00000  Uiso   1.00
C1556  C     0.87500   0.65730   0.34575   0.00000  Uiso   1.00
C1557  C     0.75000   0.61000   0.48925   0.00000  Uiso   1.00
C1558  C     0.75000   0.59270   0.47075   0.00000  Uiso   1.00
C1559  C     0.87500   0.73500   0.36425   0.00000  Uiso   1.00
C1560  C     0.87500   0.71770   0.34575   0.00000  Uiso   1.00
C1561  C     0.75000   0.64000   0.26075   0.00000  Uiso   1.00
C1562  C     0.75000   0.65730   0.27925   0.00000  Uiso   1.00
C1563  C     0.87500   0.51500   0.38575   0.00000  Uiso   1.00
C1564  C     0.87500   0.53230   0.40425   0.00000  Uiso   1.00
C1565  C     0.75000   0.73500   0.26075   0.00000  Uiso   1.00
C1566  C     0.75000   0.71770   0.27925   0.00000  Uiso   1.00
C1567  C     0.87500   0.61000   0.38575   0.00000  Uiso   1.00
C1568  C     0.87500   0.59270   0.40425   0.00000  Uiso   1.00
O1569  O     0.03900   0.79175   0.46043   0.00000  Uiso   1.00
C1570  C     0.20200   0.75905   0.49350   0.00000  Uiso   1.00
O1571  O     0.16400   0.91675   0.33543   0.00000  Uiso   1.00
C1572  C     0.07700   0.88405   0.36850   0.00000  Uiso   1.00
O1573  O     0.21100   0.83325   0.46043   0.00000  Uiso   1.00
C1574  C     0.04800   0.86595   0.49350   0.00000  Uiso   1.00
O1575  O     0.08600   0.95825   0.33543   0.00000  Uiso   1.00
C1576  C     0.17300   0.99095   0.36850   0.00000  Uiso   1.00
O1577  O     0.21100   0.91675   0.28957   0.00000  Uiso   1.00
C1578  C     0.04800   0.88405   0.25650   0.00000  Uiso   1.00
O1579  O     0.08600   0.79175   0.41457   0.00000  Uiso   1.00
C1580  C     0.17300   0.75905   0.38150   0.00000  Uiso   1.00
O1581  O     0.03900   0.95825   0.28957   0.00000  Uiso   1.00
C1582  C     0.20200   0.99095   0.25650   0.00000  Uiso   1.00
O1583  O     0.16400   0.83325   0.41457   0.00000  Uiso   1.00
C1584  C     0.07700   0.86595   0.38150   0.00000  Uiso   1.00
O1585  O     0.21100   0.95825   0.28957   0.00000  Uiso   1.00
C1586  C     0.04800   0.99095   0.25650   0.00000  Uiso   1.00
O1587  O     0.08600   0.83325   0.41457   0.00000  Uiso   1.00
C1588  C     0.17300   0.86595   0.38150   0.00000  Uiso   1.00
O1589  O     0.03900   0.91675   0.28957   0.00000  Uiso   1.00
C1590  C     0.20200   0.88405   0.25650   0.00000  Uiso   1.00
O1591  O     0.16400   0.79175   0.41457   0.00000  Uiso   1.00
C1592  C     0.07700   0.75905   0.38150   0.00000  Uiso   1.00
O1593  O     0.03900   0.83325   0.46043   0.00000  Uiso   1.00
C1594  C     0.20200   0.86595   0.49350   0.00000  Uiso   1.00
O1595  O     0.16400   0.95825   0.33543   0.00000  Uiso   1.00
C1596  C     0.07700   0.99095   0.36850   0.00000  Uiso   1.00
O1597  O     0.21100   0.79175   0.46043   0.00000  Uiso   1.00
C1598  C     0.04800   0.75905   0.49350   0.00000  Uiso   1.00
O1599  O     0.08600   0.91675   0.33543   0.00000  Uiso   1.00
C1600  C     0.17300   0.88405   0.36850   0.00000  Uiso   1.00
Al1601 Al    0.06250   0.81250   0.43750   0.00000  Uiso   1.00
Al1602 Al    0.18750   0.81250   0.43750   0.00000  Uiso   1.00
Al1603 Al    0.18750   0.93750   0.31250   0.00000  Uiso   1.00
Al1604 Al    0.06250   0.93750   0.31250   0.00000  Uiso   1.00
O1605  O     0.00000   0.81250   0.42325   0.00000  Uiso   1.00
O1606  O     0.12500   0.93750   0.29825   0.00000  Uiso   1.00
O1607  O     0.00000   0.93750   0.32675   0.00000  Uiso   1.00
O1608  O     0.12500   0.81250   0.45175   0.00000  Uiso   1.00
C1609  C     0.00000   0.76500   0.48925   0.00000  Uiso   1.00
C1610  C     0.00000   0.78230   0.47075   0.00000  Uiso   1.00
C1611  C     0.12500   0.89000   0.36425   0.00000  Uiso   1.00
C1612  C     0.12500   0.90730   0.34575   0.00000  Uiso   1.00
C1613  C     0.00000   0.86000   0.48925   0.00000  Uiso   1.00
C1614  C     0.00000   0.84270   0.47075   0.00000  Uiso   1.00
C1615  C     0.12500   0.98500   0.36425   0.00000  Uiso   1.00
C1616  C     0.12500   0.96770   0.34575   0.00000  Uiso   1.00
C1617  C     0.00000   0.89000   0.26075   0.00000  Uiso   1.00
C1618  C     0.00000   0.90730   0.27925   0.00000  Uiso   1.00
C1619  C     0.12500   0.76500   0.38575   0.00000  Uiso   1.00
C1620  C     0.12500   0.78230   0.40425   0.00000  Uiso   1.00
C1621  C     0.00000   0.98500   0.26075   0.00000  Uiso   1.00
C1622  C     0.00000   0.96770   0.27925   0.00000  Uiso   1.00
C1623  C     0.12500   0.86000   0.38575   0.00000  Uiso   1.00
C1624  C     0.12500   0.84270   0.40425   0.00000  Uiso   1.00
O1625  O     0.28900   0.79175   0.46043   0.00000  Uiso   1.00
C1626  C     0.45200   0.75905   0.49350   0.00000  Uiso   1.00
O1627  O     0.41400   0.91675   0.33543   0.00000  Uiso   1.00
C1628  C     0.32700   0.88405   0.36850   0.00000  Uiso   1.00
O1629  O     0.46100   0.83325   0.46043   0.00000  Uiso   1.00
C1630  C     0.29800   0.86595   0.49350   0.00000  Uiso   1.00
O1631  O     0.33600   0.95825   0.33543   0.00000  Uiso   1.00
C1632  C     0.42300   0.99095   0.36850   0.00000  Uiso   1.00
O1633  O     0.46100   0.91675   0.28957   0.00000  Uiso   1.00
C1634  C     0.29800   0.88405   0.25650   0.00000  Uiso   1.00
O1635  O     0.33600   0.79175   0.41457   0.00000  Uiso   1.00
C1636  C     0.42300   0.75905   0.38150   0.00000  Uiso   1.00
O1637  O     0.28900   0.95825   0.28957   0.00000  Uiso   1.00
C1638  C     0.45200   0.99095   0.25650   0.00000  Uiso   1.00
O1639  O     0.41400   0.83325   0.41457   0.00000  Uiso   1.00
C1640  C     0.32700   0.86595   0.38150   0.00000  Uiso   1.00
O1641  O     0.46100   0.95825   0.28957   0.00000  Uiso   1.00
C1642  C     0.29800   0.99095   0.25650   0.00000  Uiso   1.00
O1643  O     0.33600   0.83325   0.41457   0.00000  Uiso   1.00
C1644  C     0.42300   0.86595   0.38150   0.00000  Uiso   1.00
O1645  O     0.28900   0.91675   0.28957   0.00000  Uiso   1.00
C1646  C     0.45200   0.88405   0.25650   0.00000  Uiso   1.00
O1647  O     0.41400   0.79175   0.41457   0.00000  Uiso   1.00
C1648  C     0.32700   0.75905   0.38150   0.00000  Uiso   1.00
O1649  O     0.28900   0.83325   0.46043   0.00000  Uiso   1.00
C1650  C     0.45200   0.86595   0.49350   0.00000  Uiso   1.00
O1651  O     0.41400   0.95825   0.33543   0.00000  Uiso   1.00
C1652  C     0.32700   0.99095   0.36850   0.00000  Uiso   1.00
O1653  O     0.46100   0.79175   0.46043   0.00000  Uiso   1.00
C1654  C     0.29800   0.75905   0.49350   0.00000  Uiso   1.00
O1655  O     0.33600   0.91675   0.33543   0.00000  Uiso   1.00
C1656  C     0.42300   0.88405   0.36850   0.00000  Uiso   1.00
Al1657 Al    0.31250   0.81250   0.43750   0.00000  Uiso   1.00
Al1658 Al    0.43750   0.81250   0.43750   0.00000  Uiso   1.00
Al1659 Al    0.43750   0.93750   0.31250   0.00000  Uiso   1.00
Al1660 Al    0.31250   0.93750   0.31250   0.00000  Uiso   1.00
O1661  O     0.25000   0.81250   0.42325   0.00000  Uiso   1.00
O1662  O     0.37500   0.93750   0.29825   0.00000  Uiso   1.00
O1663  O     0.25000   0.93750   0.32675   0.00000  Uiso   1.00
O1664  O     0.37500   0.81250   0.45175   0.00000  Uiso   1.00
C1665  C     0.25000   0.76500   0.48925   0.00000  Uiso   1.00
C1666  C     0.25000   0.78230   0.47075   0.00000  Uiso   1.00
C1667  C     0.37500   0.89000   0.36425   0.00000  Uiso   1.00
C1668  C     0.37500   0.90730   0.34575   0.00000  Uiso   1.00
C1669  C     0.25000   0.86000   0.48925   0.00000  Uiso   1.00
C1670  C     0.25000   0.84270   0.47075   0.00000  Uiso   1.00
C1671  C     0.37500   0.98500   0.36425   0.00000  Uiso   1.00
C1672  C     0.37500   0.96770   0.34575   0.00000  Uiso   1.00
C1673  C     0.25000   0.89000   0.26075   0.00000  Uiso   1.00
C1674  C     0.25000   0.90730   0.27925   0.00000  Uiso   1.00
C1675  C     0.37500   0.76500   0.38575   0.00000  Uiso   1.00
C1676  C     0.37500   0.78230   0.40425   0.00000  Uiso   1.00
C1677  C     0.25000   0.98500   0.26075   0.00000  Uiso   1.00
C1678  C     0.25000   0.96770   0.27925   0.00000  Uiso   1.00
C1679  C     0.37500   0.86000   0.38575   0.00000  Uiso   1.00
C1680  C     0.37500   0.84270   0.40425   0.00000  Uiso   1.00
O1681  O     0.53900   0.79175   0.46043   0.00000  Uiso   1.00
C1682  C     0.70200   0.75905   0.49350   0.00000  Uiso   1.00
O1683  O     0.66400   0.91675   0.33543   0.00000  Uiso   1.00
C1684  C     0.57700   0.88405   0.36850   0.00000  Uiso   1.00
O1685  O     0.71100   0.83325   0.46043   0.00000  Uiso   1.00
C1686  C     0.54800   0.86595   0.49350   0.00000  Uiso   1.00
O1687  O     0.58600   0.95825   0.33543   0.00000  Uiso   1.00
C1688  C     0.67300   0.99095   0.36850   0.00000  Uiso   1.00
O1689  O     0.71100   0.91675   0.28957   0.00000  Uiso   1.00
C1690  C     0.54800   0.88405   0.25650   0.00000  Uiso   1.00
O1691  O     0.58600   0.79175   0.41457   0.00000  Uiso   1.00
C1692  C     0.67300   0.75905   0.38150   0.00000  Uiso   1.00
O1693  O     0.53900   0.95825   0.28957   0.00000  Uiso   1.00
C1694  C     0.70200   0.99095   0.25650   0.00000  Uiso   1.00
O1695  O     0.66400   0.83325   0.41457   0.00000  Uiso   1.00
C1696  C     0.57700   0.86595   0.38150   0.00000  Uiso   1.00
O1697  O     0.71100   0.95825   0.28957   0.00000  Uiso   1.00
C1698  C     0.54800   0.99095   0.25650   0.00000  Uiso   1.00
O1699  O     0.58600   0.83325   0.41457   0.00000  Uiso   1.00
C1700  C     0.67300   0.86595   0.38150   0.00000  Uiso   1.00
O1701  O     0.53900   0.91675   0.28957   0.00000  Uiso   1.00
C1702  C     0.70200   0.88405   0.25650   0.00000  Uiso   1.00
O1703  O     0.66400   0.79175   0.41457   0.00000  Uiso   1.00
C1704  C     0.57700   0.75905   0.38150   0.00000  Uiso   1.00
O1705  O     0.53900   0.83325   0.46043   0.00000  Uiso   1.00
C1706  C     0.70200   0.86595   0.49350   0.00000  Uiso   1.00
O1707  O     0.66400   0.95825   0.33543   0.00000  Uiso   1.00
C1708  C     0.57700   0.99095   0.36850   0.00000  Uiso   1.00
O1709  O     0.71100   0.79175   0.46043   0.00000  Uiso   1.00
C1710  C     0.54800   0.75905   0.49350   0.00000  Uiso   1.00
O1711  O     0.58600   0.91675   0.33543   0.00000  Uiso   1.00
C1712  C     0.67300   0.88405   0.36850   0.00000  Uiso   1.00
Al1713 Al    0.56250   0.81250   0.43750   0.00000  Uiso   1.00
Al1714 Al    0.68750   0.81250   0.43750   0.00000  Uiso   1.00
Al1715 Al    0.68750   0.93750   0.31250   0.00000  Uiso   1.00
Al1716 Al    0.56250   0.93750   0.31250   0.00000  Uiso   1.00
O1717  O     0.50000   0.81250   0.42325   0.00000  Uiso   1.00
O1718  O     0.62500   0.93750   0.29825   0.00000  Uiso   1.00
O1719  O     0.50000   0.93750   0.32675   0.00000  Uiso   1.00
O1720  O     0.62500   0.81250   0.45175   0.00000  Uiso   1.00
C1721  C     0.50000   0.76500   0.48925   0.00000  Uiso   1.00
C1722  C     0.50000   0.78230   0.47075   0.00000  Uiso   1.00
C1723  C     0.62500   0.89000   0.36425   0.00000  Uiso   1.00
C1724  C     0.62500   0.90730   0.34575   0.00000  Uiso   1.00
C1725  C     0.50000   0.86000   0.48925   0.00000  Uiso   1.00
C1726  C     0.50000   0.84270   0.47075   0.00000  Uiso   1.00
C1727  C     0.62500   0.98500   0.36425   0.00000  Uiso   1.00
C1728  C     0.62500   0.96770   0.34575   0.00000  Uiso   1.00
C1729  C     0.50000   0.89000   0.26075   0.00000  Uiso   1.00
C1730  C     0.50000   0.90730   0.27925   0.00000  Uiso   1.00
C1731  C     0.62500   0.76500   0.38575   0.00000  Uiso   1.00
C1732  C     0.62500   0.78230   0.40425   0.00000  Uiso   1.00
C1733  C     0.50000   0.98500   0.26075   0.00000  Uiso   1.00
C1734  C     0.50000   0.96770   0.27925   0.00000  Uiso   1.00
C1735  C     0.62500   0.86000   0.38575   0.00000  Uiso   1.00
C1736  C     0.62500   0.84270   0.40425   0.00000  Uiso   1.00
O1737  O     0.78900   0.79175   0.46043   0.00000  Uiso   1.00
C1738  C     0.95200   0.75905   0.49350   0.00000  Uiso   1.00
O1739  O     0.91400   0.91675   0.33543   0.00000  Uiso   1.00
C1740  C     0.82700   0.88405   0.36850   0.00000  Uiso   1.00
O1741  O     0.96100   0.83325   0.46043   0.00000  Uiso   1.00
C1742  C     0.79800   0.86595   0.49350   0.00000  Uiso   1.00
O1743  O     0.83600   0.95825   0.33543   0.00000  Uiso   1.00
C1744  C     0.92300   0.99095   0.36850   0.00000  Uiso   1.00
O1745  O     0.96100   0.91675   0.28957   0.00000  Uiso   1.00
C1746  C     0.79800   0.88405   0.25650   0.00000  Uiso   1.00
O1747  O     0.83600   0.79175   0.41457   0.00000  Uiso   1.00
C1748  C     0.92300   0.75905   0.38150   0.00000  Uiso   1.00
O1749  O     0.78900   0.95825   0.28957   0.00000  Uiso   1.00
C1750  C     0.95200   0.99095   0.25650   0.00000  Uiso   1.00
O1751  O     0.91400   0.83325   0.41457   0.00000  Uiso   1.00
C1752  C     0.82700   0.86595   0.38150   0.00000  Uiso   1.00
O1753  O     0.96100   0.95825   0.28957   0.00000  Uiso   1.00
C1754  C     0.79800   0.99095   0.25650   0.00000  Uiso   1.00
O1755  O     0.83600   0.83325   0.41457   0.00000  Uiso   1.00
C1756  C     0.92300   0.86595   0.38150   0.00000  Uiso   1.00
O1757  O     0.78900   0.91675   0.28957   0.00000  Uiso   1.00
C1758  C     0.95200   0.88405   0.25650   0.00000  Uiso   1.00
O1759  O     0.91400   0.79175   0.41457   0.00000  Uiso   1.00
C1760  C     0.82700   0.75905   0.38150   0.00000  Uiso   1.00
O1761  O     0.78900   0.83325   0.46043   0.00000  Uiso   1.00
C1762  C     0.95200   0.86595   0.49350   0.00000  Uiso   1.00
O1763  O     0.91400   0.95825   0.33543   0.00000  Uiso   1.00
C1764  C     0.82700   0.99095   0.36850   0.00000  Uiso   1.00
O1765  O     0.96100   0.79175   0.46043   0.00000  Uiso   1.00
C1766  C     0.79800   0.75905   0.49350   0.00000  Uiso   1.00
O1767  O     0.83600   0.91675   0.33543   0.00000  Uiso   1.00
C1768  C     0.92300   0.88405   0.36850   0.00000  Uiso   1.00
Al1769 Al    0.81250   0.81250   0.43750   0.00000  Uiso   1.00
Al1770 Al    0.93750   0.81250   0.43750   0.00000  Uiso   1.00
Al1771 Al    0.93750   0.93750   0.31250   0.00000  Uiso   1.00
Al1772 Al    0.81250   0.93750   0.31250   0.00000  Uiso   1.00
O1773  O     0.75000   0.81250   0.42325   0.00000  Uiso   1.00
O1774  O     0.87500   0.93750   0.29825   0.00000  Uiso   1.00
O1775  O     0.75000   0.93750   0.32675   0.00000  Uiso   1.00
O1776  O     0.87500   0.81250   0.45175   0.00000  Uiso   1.00
C1777  C     0.75000   0.76500   0.48925   0.00000  Uiso   1.00
C1778  C     0.75000   0.78230   0.47075   0.00000  Uiso   1.00
C1779  C     0.87500   0.89000   0.36425   0.00000  Uiso   1.00
C1780  C     0.87500   0.90730   0.34575   0.00000  Uiso   1.00
C1781  C     0.75000   0.86000   0.48925   0.00000  Uiso   1.00
C1782  C     0.75000   0.84270   0.47075   0.00000  Uiso   1.00
C1783  C     0.87500   0.98500   0.36425   0.00000  Uiso   1.00
C1784  C     0.87500   0.96770   0.34575   0.00000  Uiso   1.00
C1785  C     0.75000   0.89000   0.26075   0.00000  Uiso   1.00
C1786  C     0.75000   0.90730   0.27925   0.00000  Uiso   1.00
C1787  C     0.87500   0.76500   0.38575   0.00000  Uiso   1.00
C1788  C     0.87500   0.78230   0.40425   0.00000  Uiso   1.00
C1789  C     0.75000   0.98500   0.26075   0.00000  Uiso   1.00
C1790  C     0.75000   0.96770   0.27925   0.00000  Uiso   1.00
C1791  C     0.87500   0.86000   0.38575   0.00000  Uiso   1.00
C1792  C     0.87500   0.84270   0.40425   0.00000  Uiso   1.00
O1793  O     0.03900   0.04175   0.71043   0.00000  Uiso   1.00
C1794  C     0.20200   0.00905   0.74350   0.00000  Uiso   1.00
O1795  O     0.16400   0.16675   0.58543   0.00000  Uiso   1.00
C1796  C     0.07700   0.13405   0.61850   0.00000  Uiso   1.00
O1797  O     0.21100   0.08325   0.71043   0.00000  Uiso   1.00
C1798  C     0.04800   0.11595   0.74350   0.00000  Uiso   1.00
O1799  O     0.08600   0.20825   0.58543   0.00000  Uiso   1.00
C1800  C     0.17300   0.24095   0.61850   0.00000  Uiso   1.00
O1801  O     0.21100   0.16675   0.53957   0.00000  Uiso   1.00
C1802  C     0.04800   0.13405   0.50650   0.00000  Uiso   1.00
O1803  O     0.08600   0.04175   0.66457   0.00000  Uiso   1.00
C1804  C     0.17300   0.00905   0.63150   0.00000  Uiso   1.00
O1805  O     0.03900   0.20825   0.53957   0.00000  Uiso   1.00
C1806  C     0.20200   0.24095   0.50650   0.00000  Uiso   1.00
O1807  O     0.16400   0.08325   0.66457   0.00000  Uiso   1.00
C1808  C     0.07700   0.11595   0.63150   0.00000  Uiso   1.00
O1809  O     0.21100   0.20825   0.53957   0.00000  Uiso   1.00
C1810  C     0.04800   0.24095   0.50650   0.00000  Uiso   1.00
O1811  O     0.08600   0.08325   0.66457   0.00000  Uiso   1.00
C1812  C     0.17300   0.11595   0.63150   0.00000  Uiso   1.00
O1813  O     0.03900   0.16675   0.53957   0.00000  Uiso   1.00
C1814  C     0.20200   0.13405   0.50650   0.00000  Uiso   1.00
O1815  O     0.16400   0.04175   0.66457   0.00000  Uiso   1.00
C1816  C     0.07700   0.00905   0.63150   0.00000  Uiso   1.00
O1817  O     0.03900   0.08325   0.71043   0.00000  Uiso   1.00
C1818  C     0.20200   0.11595   0.74350   0.00000  Uiso   1.00
O1819  O     0.16400   0.20825   0.58543   0.00000  Uiso   1.00
C1820  C     0.07700   0.24095   0.61850   0.00000  Uiso   1.00
O1821  O     0.21100   0.04175   0.71043   0.00000  Uiso   1.00
C1822  C     0.04800   0.00905   0.74350   0.00000  Uiso   1.00
O1823  O     0.08600   0.16675   0.58543   0.00000  Uiso   1.00
C1824  C     0.17300   0.13405   0.61850   0.00000  Uiso   1.00
Al1825 Al    0.06250   0.06250   0.68750   0.00000  Uiso   1.00
Al1826 Al    0.18750   0.06250   0.68750   0.00000  Uiso   1.00
Al1827 Al    0.18750   0.18750   0.56250   0.00000  Uiso   1.00
Al1828 Al    0.06250   0.18750   0.56250   0.00000  Uiso   1.00
O1829  O     0.00000   0.06250   0.67325   0.00000  Uiso   1.00
O1830  O     0.12500   0.18750   0.54825   0.00000  Uiso   1.00
O1831  O     0.00000   0.18750   0.57675   0.00000  Uiso   1.00
O1832  O     0.12500   0.06250   0.70175   0.00000  Uiso   1.00
C1833  C     0.00000   0.01500   0.73925   0.00000  Uiso   1.00
C1834  C     0.00000   0.03230   0.72075   0.00000  Uiso   1.00
C1835  C     0.12500   0.14000   0.61425   0.00000  Uiso   1.00
C1836  C     0.12500   0.15730   0.59575   0.00000  Uiso   1.00
C1837  C     0.00000   0.11000   0.73925   0.00000  Uiso   1.00
C1838  C     0.00000   0.09270   0.72075   0.00000  Uiso   1.00
C1839  C     0.12500   0.23500   0.61425   0.00000  Uiso   1.00
C1840  C     0.12500   0.21770   0.59575   0.00000  Uiso   1.00
C1841  C     0.00000   0.14000   0.51075   0.00000  Uiso   1.00
C1842  C     0.00000   0.15730   0.52925   0.00000  Uiso   1.00
C1843  C     0.12500   0.01500   0.63575   0.00000  Uiso   1.00
C1844  C     0.12500   0.03230   0.65425   0.00000  Uiso   1.00
C1845  C     0.00000   0.23500   0.51075   0.00000  Uiso   1.00
C1846  C     0.00000   0.21770   0.52925   0.00000  Uiso   1.00
C1847  C     0.12500   0.11000   0.63575   0.00000  Uiso   1.00
C1848  C     0.12500   0.09270   0.65425   0.00000  Uiso   1.00
O1849  O     0.28900   0.04175   0.71043   0.00000  Uiso   1.00
C1850  C     0.45200   0.00905   0.74350   0.00000  Uiso   1.00
O1851  O     0.41400   0.16675   0.58543   0.00000  Uiso   1.00
C1852  C     0.32700   0.13405   0.61850   0.00000  Uiso   1.00
O1853  O     0.46100   0.08325   0.71043   0.00000  Uiso   1.00
C1854  C     0.29800   0.11595   0.74350   0.00000  Uiso   1.00
O1855  O     0.33600   0.20825   0.58543   0.00000  Uiso   1.00
C1856  C     0.42300   0.24095   0.61850   0.00000  Uiso   1.00
O1857  O     0.46100   0.16675   0.53957   0.00000  Uiso   1.00
C1858  C     0.29800   0.13405   0.50650   0.00000  Uiso   1.00
O1859  O     0.33600   0.04175   0.66457   0.00000  Uiso   1.00
C1860  C     0.42300   0.00905   0.63150   0.00000  Uiso   1.00
O1861  O     0.28900   0.20825   0.53957   0.00000  Uiso   1.00
C1862  C     0.45200   0.24095   0.50650   0.00000  Uiso   1.00
O1863  O     0.41400   0.08325   0.66457   0.00000  Uiso   1.00
C1864  C     0.32700   0.11595   0.63150   0.00000  Uiso   1.00
O1865  O     0.46100   0.20825   0.53957   0.00000  Uiso   1.00
C1866  C     0.29800   0.24095   0.50650   0.00000  Uiso   1.00
O1867  O     0.33600   0.08325   0.66457   0.00000  Uiso   1.00
C1868  C     0.42300   0.11595   0.63150   0.00000  Uiso   1.00
O1869  O     0.28900   0.16675   0.53957   0.00000  Uiso   1.00
C1870  C     0.45200   0.13405   0.50650   0.00000  Uiso   1.00
O1871  O     0.41400   0.04175   0.66457   0.00000  Uiso   1.00
C1872  C     0.32700   0.00905   0.63150   0.00000  Uiso   1.00
O1873  O     0.28900   0.08325   0.71043   0.00000  Uiso   1.00
C1874  C     0.45200   0.11595   0.74350   0.00000  Uiso   1.00
O1875  O     0.41400   0.20825   0.58543   0.00000  Uiso   1.00
C1876  C     0.32700   0.24095   0.61850   0.00000  Uiso   1.00
O1877  O     0.46100   0.04175   0.71043   0.00000  Uiso   1.00
C1878  C     0.29800   0.00905   0.74350   0.00000  Uiso   1.00
O1879  O     0.33600   0.16675   0.58543   0.00000  Uiso   1.00
C1880  C     0.42300   0.13405   0.61850   0.00000  Uiso   1.00
Al1881 Al    0.31250   0.06250   0.68750   0.00000  Uiso   1.00
Al1882 Al    0.43750   0.06250   0.68750   0.00000  Uiso   1.00
Al1883 Al    0.43750   0.18750   0.56250   0.00000  Uiso   1.00
Al1884 Al    0.31250   0.18750   0.56250   0.00000  Uiso   1.00
O1885  O     0.25000   0.06250   0.67325   0.00000  Uiso   1.00
O1886  O     0.37500   0.18750   0.54825   0.00000  Uiso   1.00
O1887  O     0.25000   0.18750   0.57675   0.00000  Uiso   1.00
O1888  O     0.37500   0.06250   0.70175   0.00000  Uiso   1.00
C1889  C     0.25000   0.01500   0.73925   0.00000  Uiso   1.00
C1890  C     0.25000   0.03230   0.72075   0.00000  Uiso   1.00
C1891  C     0.37500   0.14000   0.61425   0.00000  Uiso   1.00
C1892  C     0.37500   0.15730   0.59575   0.00000  Uiso   1.00
C1893  C     0.25000   0.11000   0.73925   0.00000  Uiso   1.00
C1894  C     0.25000   0.09270   0.72075   0.00000  Uiso   1.00
C1895  C     0.37500   0.23500   0.61425   0.00000  Uiso   1.00
C1896  C     0.37500   0.21770   0.59575   0.00000  Uiso   1.00
C1897  C     0.25000   0.14000   0.51075   0.00000  Uiso   1.00
C1898  C     0.25000   0.15730   0.52925   0.00000  Uiso   1.00
C1899  C     0.37500   0.01500   0.63575   0.00000  Uiso   1.00
C1900  C     0.37500   0.03230   0.65425   0.00000  Uiso   1.00
C1901  C     0.25000   0.23500   0.51075   0.00000  Uiso   1.00
C1902  C     0.25000   0.21770   0.52925   0.00000  Uiso   1.00
C1903  C     0.37500   0.11000   0.63575   0.00000  Uiso   1.00
C1904  C     0.37500   0.09270   0.65425   0.00000  Uiso   1.00
O1905  O     0.53900   0.04175   0.71043   0.00000  Uiso   1.00
C1906  C     0.70200   0.00905   0.74350   0.00000  Uiso   1.00
O1907  O     0.66400   0.16675   0.58543   0.00000  Uiso   1.00
C1908  C     0.57700   0.13405   0.61850   0.00000  Uiso   1.00
O1909  O     0.71100   0.08325   0.71043   0.00000  Uiso   1.00
C1910  C     0.54800   0.11595   0.74350   0.00000  Uiso   1.00
O1911  O     0.58600   0.20825   0.58543   0.00000  Uiso   1.00
C1912  C     0.67300   0.24095   0.61850   0.00000  Uiso   1.00
O1913  O     0.71100   0.16675   0.53957   0.00000  Uiso   1.00
C1914  C     0.54800   0.13405   0.50650   0.00000  Uiso   1.00
O1915  O     0.58600   0.04175   0.66457   0.00000  Uiso   1.00
C1916  C     0.67300   0.00905   0.63150   0.00000  Uiso   1.00
O1917  O     0.53900   0.20825   0.53957   0.00000  Uiso   1.00
C1918  C     0.70200   0.24095   0.50650   0.00000  Uiso   1.00
O1919  O     0.66400   0.08325   0.66457   0.00000  Uiso   1.00
C1920  C     0.57700   0.11595   0.63150   0.00000  Uiso   1.00
O1921  O     0.71100   0.20825   0.53957   0.00000  Uiso   1.00
C1922  C     0.54800   0.24095   0.50650   0.00000  Uiso   1.00
O1923  O     0.58600   0.08325   0.66457   0.00000  Uiso   1.00
C1924  C     0.67300   0.11595   0.63150   0.00000  Uiso   1.00
O1925  O     0.53900   0.16675   0.53957   0.00000  Uiso   1.00
C1926  C     0.70200   0.13405   0.50650   0.00000  Uiso   1.00
O1927  O     0.66400   0.04175   0.66457   0.00000  Uiso   1.00
C1928  C     0.57700   0.00905   0.63150   0.00000  Uiso   1.00
O1929  O     0.53900   0.08325   0.71043   0.00000  Uiso   1.00
C1930  C     0.70200   0.11595   0.74350   0.00000  Uiso   1.00
O1931  O     0.66400   0.20825   0.58543   0.00000  Uiso   1.00
C1932  C     0.57700   0.24095   0.61850   0.00000  Uiso   1.00
O1933  O     0.71100   0.04175   0.71043   0.00000  Uiso   1.00
C1934  C     0.54800   0.00905   0.74350   0.00000  Uiso   1.00
O1935  O     0.58600   0.16675   0.58543   0.00000  Uiso   1.00
C1936  C     0.67300   0.13405   0.61850   0.00000  Uiso   1.00
Al1937 Al    0.56250   0.06250   0.68750   0.00000  Uiso   1.00
Al1938 Al    0.68750   0.06250   0.68750   0.00000  Uiso   1.00
Al1939 Al    0.68750   0.18750   0.56250   0.00000  Uiso   1.00
Al1940 Al    0.56250   0.18750   0.56250   0.00000  Uiso   1.00
O1941  O     0.50000   0.06250   0.67325   0.00000  Uiso   1.00
O1942  O     0.62500   0.18750   0.54825   0.00000  Uiso   1.00
O1943  O     0.50000   0.18750   0.57675   0.00000  Uiso   1.00
O1944  O     0.62500   0.06250   0.70175   0.00000  Uiso   1.00
C1945  C     0.50000   0.01500   0.73925   0.00000  Uiso   1.00
C1946  C     0.50000   0.03230   0.72075   0.00000  Uiso   1.00
C1947  C     0.62500   0.14000   0.61425   0.00000  Uiso   1.00
C1948  C     0.62500   0.15730   0.59575   0.00000  Uiso   1.00
C1949  C     0.50000   0.11000   0.73925   0.00000  Uiso   1.00
C1950  C     0.50000   0.09270   0.72075   0.00000  Uiso   1.00
C1951  C     0.62500   0.23500   0.61425   0.00000  Uiso   1.00
C1952  C     0.62500   0.21770   0.59575   0.00000  Uiso   1.00
C1953  C     0.50000   0.14000   0.51075   0.00000  Uiso   1.00
C1954  C     0.50000   0.15730   0.52925   0.00000  Uiso   1.00
C1955  C     0.62500   0.01500   0.63575   0.00000  Uiso   1.00
C1956  C     0.62500   0.03230   0.65425   0.00000  Uiso   1.00
C1957  C     0.50000   0.23500   0.51075   0.00000  Uiso   1.00
C1958  C     0.50000   0.21770   0.52925   0.00000  Uiso   1.00
C1959  C     0.62500   0.11000   0.63575   0.00000  Uiso   1.00
C1960  C     0.62500   0.09270   0.65425   0.00000  Uiso   1.00
O1961  O     0.78900   0.04175   0.71043   0.00000  Uiso   1.00
C1962  C     0.95200   0.00905   0.74350   0.00000  Uiso   1.00
O1963  O     0.91400   0.16675   0.58543   0.00000  Uiso   1.00
C1964  C     0.82700   0.13405   0.61850   0.00000  Uiso   1.00
O1965  O     0.96100   0.08325   0.71043   0.00000  Uiso   1.00
C1966  C     0.79800   0.11595   0.74350   0.00000  Uiso   1.00
O1967  O     0.83600   0.20825   0.58543   0.00000  Uiso   1.00
C1968  C     0.92300   0.24095   0.61850   0.00000  Uiso   1.00
O1969  O     0.96100   0.16675   0.53957   0.00000  Uiso   1.00
C1970  C     0.79800   0.13405   0.50650   0.00000  Uiso   1.00
O1971  O     0.83600   0.04175   0.66457   0.00000  Uiso   1.00
C1972  C     0.92300   0.00905   0.63150   0.00000  Uiso   1.00
O1973  O     0.78900   0.20825   0.53957   0.00000  Uiso   1.00
C1974  C     0.95200   0.24095   0.50650   0.00000  Uiso   1.00
O1975  O     0.91400   0.08325   0.66457   0.00000  Uiso   1.00
C1976  C     0.82700   0.11595   0.63150   0.00000  Uiso   1.00
O1977  O     0.96100   0.20825   0.53957   0.00000  Uiso   1.00
C1978  C     0.79800   0.24095   0.50650   0.00000  Uiso   1.00
O1979  O     0.83600   0.08325   0.66457   0.00000  Uiso   1.00
C1980  C     0.92300   0.11595   0.63150   0.00000  Uiso   1.00
O1981  O     0.78900   0.16675   0.53957   0.00000  Uiso   1.00
C1982  C     0.95200   0.13405   0.50650   0.00000  Uiso   1.00
O1983  O     0.91400   0.04175   0.66457   0.00000  Uiso   1.00
C1984  C     0.82700   0.00905   0.63150   0.00000  Uiso   1.00
O1985  O     0.78900   0.08325   0.71043   0.00000  Uiso   1.00
C1986  C     0.95200   0.11595   0.74350   0.00000  Uiso   1.00
O1987  O     0.91400   0.20825   0.58543   0.00000  Uiso   1.00
C1988  C     0.82700   0.24095   0.61850   0.00000  Uiso   1.00
O1989  O     0.96100   0.04175   0.71043   0.00000  Uiso   1.00
C1990  C     0.79800   0.00905   0.74350   0.00000  Uiso   1.00
O1991  O     0.83600   0.16675   0.58543   0.00000  Uiso   1.00
C1992  C     0.92300   0.13405   0.61850   0.00000  Uiso   1.00
Al1993 Al    0.81250   0.06250   0.68750   0.00000  Uiso   1.00
Al1994 Al    0.93750   0.06250   0.68750   0.00000  Uiso   1.00
Al1995 Al    0.93750   0.18750   0.56250   0.00000  Uiso   1.00
Al1996 Al    0.81250   0.18750   0.56250   0.00000  Uiso   1.00
O1997  O     0.75000   0.06250   0.67325   0.00000  Uiso   1.00
O1998  O     0.87500   0.18750   0.54825   0.00000  Uiso   1.00
O1999  O     0.75000   0.18750   0.57675   0.00000  Uiso   1.00
O2000  O     0.87500   0.06250   0.70175   0.00000  Uiso   1.00
C2001  C     0.75000   0.01500   0.73925   0.00000  Uiso   1.00
C2002  C     0.75000   0.03230   0.72075   0.00000  Uiso   1.00
C2003  C     0.87500   0.14000   0.61425   0.00000  Uiso   1.00
C2004  C     0.87500   0.15730   0.59575   0.00000  Uiso   1.00
C2005  C     0.75000   0.11000   0.73925   0.00000  Uiso   1.00
C2006  C     0.75000   0.09270   0.72075   0.00000  Uiso   1.00
C2007  C     0.87500   0.23500   0.61425   0.00000  Uiso   1.00
C2008  C     0.87500   0.21770   0.59575   0.00000  Uiso   1.00
C2009  C     0.75000   0.14000   0.51075   0.00000  Uiso   1.00
C2010  C     0.75000   0.15730   0.52925   0.00000  Uiso   1.00
C2011  C     0.87500   0.01500   0.63575   0.00000  Uiso   1.00
C2012  C     0.87500   0.03230   0.65425   0.00000  Uiso   1.00
C2013  C     0.75000   0.23500   0.51075   0.00000  Uiso   1.00
C2014  C     0.75000   0.21770   0.52925   0.00000  Uiso   1.00
C2015  C     0.87500   0.11000   0.63575   0.00000  Uiso   1.00
C2016  C     0.87500   0.09270   0.65425   0.00000  Uiso   1.00
O2017  O     0.03900   0.29175   0.71043   0.00000  Uiso   1.00
C2018  C     0.20200   0.25905   0.74350   0.00000  Uiso   1.00
O2019  O     0.16400   0.41675   0.58543   0.00000  Uiso   1.00
C2020  C     0.07700   0.38405   0.61850   0.00000  Uiso   1.00
O2021  O     0.21100   0.33325   0.71043   0.00000  Uiso   1.00
C2022  C     0.04800   0.36595   0.74350   0.00000  Uiso   1.00
O2023  O     0.08600   0.45825   0.58543   0.00000  Uiso   1.00
C2024  C     0.17300   0.49095   0.61850   0.00000  Uiso   1.00
O2025  O     0.21100   0.41675   0.53957   0.00000  Uiso   1.00
C2026  C     0.04800   0.38405   0.50650   0.00000  Uiso   1.00
O2027  O     0.08600   0.29175   0.66457   0.00000  Uiso   1.00
C2028  C     0.17300   0.25905   0.63150   0.00000  Uiso   1.00
O2029  O     0.03900   0.45825   0.53957   0.00000  Uiso   1.00
C2030  C     0.20200   0.49095   0.50650   0.00000  Uiso   1.00
O2031  O     0.16400   0.33325   0.66457   0.00000  Uiso   1.00
C2032  C     0.07700   0.36595   0.63150   0.00000  Uiso   1.00
O2033  O     0.21100   0.45825   0.53957   0.00000  Uiso   1.00
C2034  C     0.04800   0.49095   0.50650   0.00000  Uiso   1.00
O2035  O     0.08600   0.33325   0.66457   0.00000  Uiso   1.00
C2036  C     0.17300   0.36595   0.63150   0.00000  Uiso   1.00
O2037  O     0.03900   0.41675   0.53957   0.00000  Uiso   1.00
C2038  C     0.20200   0.38405   0.50650   0.00000  Uiso   1.00
O2039  O     0.16400   0.29175   0.66457   0.00000  Uiso   1.00
C2040  C     0.07700   0.25905   0.63150   0.00000  Uiso   1.00
O2041  O     0.03900   0.33325   0.71043   0.00000  Uiso   1.00
C2042  C     0.20200   0.36595   0.74350   0.00000  Uiso   1.00
O2043  O     0.16400   0.45825   0.58543   0.00000  Uiso   1.00
C2044  C     0.07700   0.49095   0.61850   0.00000  Uiso   1.00
O2045  O     0.21100   0.29175   0.71043   0.00000  Uiso   1.00
C2046  C     0.04800   0.25905   0.74350   0.00000  Uiso   1.00
O2047  O     0.08600   0.41675   0.58543   0.00000  Uiso   1.00
C2048  C     0.17300   0.38405   0.61850   0.00000  Uiso   1.00
Al2049 Al    0.06250   0.31250   0.68750   0.00000  Uiso   1.00
Al2050 Al    0.18750   0.31250   0.68750   0.00000  Uiso   1.00
Al2051 Al    0.18750   0.43750   0.56250   0.00000  Uiso   1.00
Al2052 Al    0.06250   0.43750   0.56250   0.00000  Uiso   1.00
O2053  O     0.00000   0.31250   0.67325   0.00000  Uiso   1.00
O2054  O     0.12500   0.43750   0.54825   0.00000  Uiso   1.00
O2055  O     0.00000   0.43750   0.57675   0.00000  Uiso   1.00
O2056  O     0.12500   0.31250   0.70175   0.00000  Uiso   1.00
C2057  C     0.00000   0.26500   0.73925   0.00000  Uiso   1.00
C2058  C     0.00000   0.28230   0.72075   0.00000  Uiso   1.00
C2059  C     0.12500   0.39000   0.61425   0.00000  Uiso   1.00
C2060  C     0.12500   0.40730   0.59575   0.00000  Uiso   1.00
C2061  C     0.00000   0.36000   0.73925   0.00000  Uiso   1.00
C2062  C     0.00000   0.34270   0.72075   0.00000  Uiso   1.00
C2063  C     0.12500   0.48500   0.61425   0.00000  Uiso   1.00
C2064  C     0.12500   0.46770   0.59575   0.00000  Uiso   1.00
C2065  C     0.00000   0.39000   0.51075   0.00000  Uiso   1.00
C2066  C     0.00000   0.40730   0.52925   0.00000  Uiso   1.00
C2067  C     0.12500   0.26500   0.63575   0.00000  Uiso   1.00
C2068  C     0.12500   0.28230   0.65425   0.00000  Uiso   1.00
C2069  C     0.00000   0.48500   0.51075   0.00000  Uiso   1.00
C2070  C     0.00000   0.46770   0.52925   0.00000  Uiso   1.00
C2071  C     0.12500   0.36000   0.63575   0.00000  Uiso   1.00
C2072  C     0.12500   0.34270   0.65425   0.00000  Uiso   1.00
O2073  O     0.28900   0.29175   0.71043   0.00000  Uiso   1.00
C2074  C     0.45200   0.25905   0.74350   0.00000  Uiso   1.00
O2075  O     0.41400   0.41675   0.58543   0.00000  Uiso   1.00
C2076  C     0.32700   0.38405   0.61850   0.00000  Uiso   1.00
O2077  O     0.46100   0.33325   0.71043   0.00000  Uiso   1.00
C2078  C     0.29800   0.36595   0.74350   0.00000  Uiso   1.00
O2079  O     0.33600   0.45825   0.58543   0.00000  Uiso   1.00
C2080  C     0.42300   0.49095   0.61850   0.00000  Uiso   1.00
O2081  O     0.46100   0.41675   0.53957   0.00000  Uiso   1.00
C2082  C     0.29800   0.38405   0.50650   0.00000  Uiso   1.00
O2083  O     0.33600   0.29175   0.66457   0.00000  Uiso   1.00
C2084  C     0.42300   0.25905   0.63150   0.00000  Uiso   1.00
O2085  O     0.28900   0.45825   0.53957   0.00000  Uiso   1.00
C2086  C     0.45200   0.49095   0.50650   0.00000  Uiso   1.00
O2087  O     0.41400   0.33325   0.66457   0.00000  Uiso   1.00
C2088  C     0.32700   0.36595   0.63150   0.00000  Uiso   1.00
O2089  O     0.46100   0.45825   0.53957   0.00000  Uiso   1.00
C2090  C     0.29800   0.49095   0.50650   0.00000  Uiso   1.00
O2091  O     0.33600   0.33325   0.66457   0.00000  Uiso   1.00
C2092  C     0.42300   0.36595   0.63150   0.00000  Uiso   1.00
O2093  O     0.28900   0.41675   0.53957   0.00000  Uiso   1.00
C2094  C     0.45200   0.38405   0.50650   0.00000  Uiso   1.00
O2095  O     0.41400   0.29175   0.66457   0.00000  Uiso   1.00
C2096  C     0.32700   0.25905   0.63150   0.00000  Uiso   1.00
O2097  O     0.28900   0.33325   0.71043   0.00000  Uiso   1.00
C2098  C     0.45200   0.36595   0.74350   0.00000  Uiso   1.00
O2099  O     0.41400   0.45825   0.58543   0.00000  Uiso   1.00
C2100  C     0.32700   0.49095   0.61850   0.00000  Uiso   1.00
O2101  O     0.46100   0.29175   0.71043   0.00000  Uiso   1.00
C2102  C     0.29800   0.25905   0.74350   0.00000  Uiso   1.00
O2103  O     0.33600   0.41675   0.58543   0.00000  Uiso   1.00
C2104  C     0.42300   0.38405   0.61850   0.00000  Uiso   1.00
Al2105 Al    0.31250   0.31250   0.68750   0.00000  Uiso   1.00
Al2106 Al    0.43750   0.31250   0.68750   0.00000  Uiso   1.00
Al2107 Al    0.43750   0.43750   0.56250   0.00000  Uiso   1.00
Al2108 Al    0.31250   0.43750   0.56250   0.00000  Uiso   1.00
O2109  O     0.25000   0.31250   0.67325   0.00000  Uiso   1.00
O2110  O     0.37500   0.43750   0.54825   0.00000  Uiso   1.00
O2111  O     0.25000   0.43750   0.57675   0.00000  Uiso   1.00
O2112  O     0.37500   0.31250   0.70175   0.00000  Uiso   1.00
C2113  C     0.25000   0.26500   0.73925   0.00000  Uiso   1.00
C2114  C     0.25000   0.28230   0.72075   0.00000  Uiso   1.00
C2115  C     0.37500   0.39000   0.61425   0.00000  Uiso   1.00
C2116  C     0.37500   0.40730   0.59575   0.00000  Uiso   1.00
C2117  C     0.25000   0.36000   0.73925   0.00000  Uiso   1.00
C2118  C     0.25000   0.34270   0.72075   0.00000  Uiso   1.00
C2119  C     0.37500   0.48500   0.61425   0.00000  Uiso   1.00
C2120  C     0.37500   0.46770   0.59575   0.00000  Uiso   1.00
C2121  C     0.25000   0.39000   0.51075   0.00000  Uiso   1.00
C2122  C     0.25000   0.40730   0.52925   0.00000  Uiso   1.00
C2123  C     0.37500   0.26500   0.63575   0.00000  Uiso   1.00
C2124  C     0.37500   0.28230   0.65425   0.00000  Uiso   1.00
C2125  C     0.25000   0.48500   0.51075   0.00000  Uiso   1.00
C2126  C     0.25000   0.46770   0.52925   0.00000  Uiso   1.00
C2127  C     0.37500   0.36000   0.63575   0.00000  Uiso   1.00
C2128  C     0.37500   0.34270   0.65425   0.00000  Uiso   1.00
O2129  O     0.53900   0.29175   0.71043   0.00000  Uiso   1.00
C2130  C     0.70200   0.25905   0.74350   0.00000  Uiso   1.00
O2131  O     0.66400   0.41675   0.58543   0.00000  Uiso   1.00
C2132  C     0.57700   0.38405   0.61850   0.00000  Uiso   1.00
O2133  O     0.71100   0.33325   0.71043   0.00000  Uiso   1.00
C2134  C     0.54800   0.36595   0.74350   0.00000  Uiso   1.00
O2135  O     0.58600   0.45825   0.58543   0.00000  Uiso   1.00
C2136  C     0.67300   0.49095   0.61850   0.00000  Uiso   1.00
O2137  O     0.71100   0.41675   0.53957   0.00000  Uiso   1.00
C2138  C     0.54800   0.38405   0.50650   0.00000  Uiso   1.00
O2139  O     0.58600   0.29175   0.66457   0.00000  Uiso   1.00
C2140  C     0.67300   0.25905   0.63150   0.00000  Uiso   1.00
O2141  O     0.53900   0.45825   0.53957   0.00000  Uiso   1.00
C2142  C     0.70200   0.49095   0.50650   0.00000  Uiso   1.00
O2143  O     0.66400   0.33325   0.66457   0.00000  Uiso   1.00
C2144  C     0.57700   0.36595   0.63150   0.00000  Uiso   1.00
O2145  O     0.71100   0.45825   0.53957   0.00000  Uiso   1.00
C2146  C     0.54800   0.49095   0.50650   0.00000  Uiso   1.00
O2147  O     0.58600   0.33325   0.66457   0.00000  Uiso   1.00
C2148  C     0.67300   0.36595   0.63150   0.00000  Uiso   1.00
O2149  O     0.53900   0.41675   0.53957   0.00000  Uiso   1.00
C2150  C     0.70200   0.38405   0.50650   0.00000  Uiso   1.00
O2151  O     0.66400   0.29175   0.66457   0.00000  Uiso   1.00
C2152  C     0.57700   0.25905   0.63150   0.00000  Uiso   1.00
O2153  O     0.53900   0.33325   0.71043   0.00000  Uiso   1.00
C2154  C     0.70200   0.36595   0.74350   0.00000  Uiso   1.00
O2155  O     0.66400   0.45825   0.58543   0.00000  Uiso   1.00
C2156  C     0.57700   0.49095   0.61850   0.00000  Uiso   1.00
O2157  O     0.71100   0.29175   0.71043   0.00000  Uiso   1.00
C2158  C     0.54800   0.25905   0.74350   0.00000  Uiso   1.00
O2159  O     0.58600   0.41675   0.58543   0.00000  Uiso   1.00
C2160  C     0.67300   0.38405   0.61850   0.00000  Uiso   1.00
Al2161 Al    0.56250   0.31250   0.68750   0.00000  Uiso   1.00
Al2162 Al    0.68750   0.31250   0.68750   0.00000  Uiso   1.00
Al2163 Al    0.68750   0.43750   0.56250   0.00000  Uiso   1.00
Al2164 Al    0.56250   0.43750   0.56250   0.00000  Uiso   1.00
O2165  O     0.50000   0.31250   0.67325   0.00000  Uiso   1.00
O2166  O     0.62500   0.43750   0.54825   0.00000  Uiso   1.00
O2167  O     0.50000   0.43750   0.57675   0.00000  Uiso   1.00
O2168  O     0.62500   0.31250   0.70175   0.00000  Uiso   1.00
C2169  C     0.50000   0.26500   0.73925   0.00000  Uiso   1.00
C2170  C     0.50000   0.28230   0.72075   0.00000  Uiso   1.00
C2171  C     0.62500   0.39000   0.61425   0.00000  Uiso   1.00
C2172  C     0.62500   0.40730   0.59575   0.00000  Uiso   1.00
C2173  C     0.50000   0.36000   0.73925   0.00000  Uiso   1.00
C2174  C     0.50000   0.34270   0.72075   0.00000  Uiso   1.00
C2175  C     0.62500   0.48500   0.61425   0.00000  Uiso   1.00
C2176  C     0.62500   0.46770   0.59575   0.00000  Uiso   1.00
C2177  C     0.50000   0.39000   0.51075   0.00000  Uiso   1.00
C2178  C     0.50000   0.40730   0.52925   0.00000  Uiso   1.00
C2179  C     0.62500   0.26500   0.63575   0.00000  Uiso   1.00
C2180  C     0.62500   0.28230   0.65425   0.00000  Uiso   1.00
C2181  C     0.50000   0.48500   0.51075   0.00000  Uiso   1.00
C2182  C     0.50000   0.46770   0.52925   0.00000  Uiso   1.00
C2183  C     0.62500   0.36000   0.63575   0.00000  Uiso   1.00
C2184  C     0.62500   0.34270   0.65425   0.00000  Uiso   1.00
O2185  O     0.78900   0.29175   0.71043   0.00000  Uiso   1.00
C2186  C     0.95200   0.25905   0.74350   0.00000  Uiso   1.00
O2187  O     0.91400   0.41675   0.58543   0.00000  Uiso   1.00
C2188  C     0.82700   0.38405   0.61850   0.00000  Uiso   1.00
O2189  O     0.96100   0.33325   0.71043   0.00000  Uiso   1.00
C2190  C     0.79800   0.36595   0.74350   0.00000  Uiso   1.00
O2191  O     0.83600   0.45825   0.58543   0.00000  Uiso   1.00
C2192  C     0.92300   0.49095   0.61850   0.00000  Uiso   1.00
O2193  O     0.96100   0.41675   0.53957   0.00000  Uiso   1.00
C2194  C     0.79800   0.38405   0.50650   0.00000  Uiso   1.00
O2195  O     0.83600   0.29175   0.66457   0.00000  Uiso   1.00
C2196  C     0.92300   0.25905   0.63150   0.00000  Uiso   1.00
O2197  O     0.78900   0.45825   0.53957   0.00000  Uiso   1.00
C2198  C     0.95200   0.49095   0.50650   0.00000  Uiso   1.00
O2199  O     0.91400   0.33325   0.66457   0.00000  Uiso   1.00
C2200  C     0.82700   0.36595   0.63150   0.00000  Uiso   1.00
O2201  O     0.96100   0.45825   0.53957   0.00000  Uiso   1.00
C2202  C     0.79800   0.49095   0.50650   0.00000  Uiso   1.00
O2203  O     0.83600   0.33325   0.66457   0.00000  Uiso   1.00
C2204  C     0.92300   0.36595   0.63150   0.00000  Uiso   1.00
O2205  O     0.78900   0.41675   0.53957   0.00000  Uiso   1.00
C2206  C     0.95200   0.38405   0.50650   0.00000  Uiso   1.00
O2207  O     0.91400   0.29175   0.66457   0.00000  Uiso   1.00
C2208  C     0.82700   0.25905   0.63150   0.00000  Uiso   1.00
O2209  O     0.78900   0.33325   0.71043   0.00000  Uiso   1.00
C2210  C     0.95200   0.36595   0.74350   0.00000  Uiso   1.00
O2211  O     0.91400   0.45825   0.58543   0.00000  Uiso   1.00
C2212  C     0.82700   0.49095   0.61850   0.00000  Uiso   1.00
O2213  O     0.96100   0.29175   0.71043   0.00000  Uiso   1.00
C2214  C     0.79800   0.25905   0.74350   0.00000  Uiso   1.00
O2215  O     0.83600   0.41675   0.58543   0.00000  Uiso   1.00
C2216  C     0.92300   0.38405   0.61850   0.00000  Uiso   1.00
Al2217 Al    0.81250   0.31250   0.68750   0.00000  Uiso   1.00
Al2218 Al    0.93750   0.31250   0.68750   0.00000  Uiso   1.00
Al2219 Al    0.93750   0.43750   0.56250   0.00000  Uiso   1.00
Al2220 Al    0.81250   0.43750   0.56250   0.00000  Uiso   1.00
O2221  O     0.75000   0.31250   0.67325   0.00000  Uiso   1.00
O2222  O     0.87500   0.43750   0.54825   0.00000  Uiso   1.00
O2223  O     0.75000   0.43750   0.57675   0.00000  Uiso   1.00
O2224  O     0.87500   0.31250   0.70175   0.00000  Uiso   1.00
C2225  C     0.75000   0.26500   0.73925   0.00000  Uiso   1.00
C2226  C     0.75000   0.28230   0.72075   0.00000  Uiso   1.00
C2227  C     0.87500   0.39000   0.61425   0.00000  Uiso   1.00
C2228  C     0.87500   0.40730   0.59575   0.00000  Uiso   1.00
C2229  C     0.75000   0.36000   0.73925   0.00000  Uiso   1.00
C2230  C     0.75000   0.34270   0.72075   0.00000  Uiso   1.00
C2231  C     0.87500   0.48500   0.61425   0.00000  Uiso   1.00
C2232  C     0.87500   0.46770   0.59575   0.00000  Uiso   1.00
C2233  C     0.75000   0.39000   0.51075   0.00000  Uiso   1.00
C2234  C     0.75000   0.40730   0.52925   0.00000  Uiso   1.00
C2235  C     0.87500   0.26500   0.63575   0.00000  Uiso   1.00
C2236  C     0.87500   0.28230   0.65425   0.00000  Uiso   1.00
C2237  C     0.75000   0.48500   0.51075   0.00000  Uiso   1.00
C2238  C     0.75000   0.46770   0.52925   0.00000  Uiso   1.00
C2239  C     0.87500   0.36000   0.63575   0.00000  Uiso   1.00
C2240  C     0.87500   0.34270   0.65425   0.00000  Uiso   1.00
O2241  O     0.03900   0.54175   0.71043   0.00000  Uiso   1.00
C2242  C     0.20200   0.50905   0.74350   0.00000  Uiso   1.00
O2243  O     0.16400   0.66675   0.58543   0.00000  Uiso   1.00
C2244  C     0.07700   0.63405   0.61850   0.00000  Uiso   1.00
O2245  O     0.21100   0.58325   0.71043   0.00000  Uiso   1.00
C2246  C     0.04800   0.61595   0.74350   0.00000  Uiso   1.00
O2247  O     0.08600   0.70825   0.58543   0.00000  Uiso   1.00
C2248  C     0.17300   0.74095   0.61850   0.00000  Uiso   1.00
O2249  O     0.21100   0.66675   0.53957   0.00000  Uiso   1.00
C2250  C     0.04800   0.63405   0.50650   0.00000  Uiso   1.00
O2251  O     0.08600   0.54175   0.66457   0.00000  Uiso   1.00
C2252  C     0.17300   0.50905   0.63150   0.00000  Uiso   1.00
O2253  O     0.03900   0.70825   0.53957   0.00000  Uiso   1.00
C2254  C     0.20200   0.74095   0.50650   0.00000  Uiso   1.00
O2255  O     0.16400   0.58325   0.66457   0.00000  Uiso   1.00
C2256  C     0.07700   0.61595   0.63150   0.00000  Uiso   1.00
O2257  O     0.21100   0.70825   0.53957   0.00000  Uiso   1.00
C2258  C     0.04800   0.74095   0.50650   0.00000  Uiso   1.00
O2259  O     0.08600   0.58325   0.66457   0.00000  Uiso   1.00
C2260  C     0.17300   0.61595   0.63150   0.00000  Uiso   1.00
O2261  O     0.03900   0.66675   0.53957   0.00000  Uiso   1.00
C2262  C     0.20200   0.63405   0.50650   0.00000  Uiso   1.00
O2263  O     0.16400   0.54175   0.66457   0.00000  Uiso   1.00
C2264  C     0.07700   0.50905   0.63150   0.00000  Uiso   1.00
O2265  O     0.03900   0.58325   0.71043   0.00000  Uiso   1.00
C2266  C     0.20200   0.61595   0.74350   0.00000  Uiso   1.00
O2267  O     0.16400   0.70825   0.58543   0.00000  Uiso   1.00
C2268  C     0.07700   0.74095   0.61850   0.00000  Uiso   1.00
O2269  O     0.21100   0.54175   0.71043   0.00000  Uiso   1.00
C2270  C     0.04800   0.50905   0.74350   0.00000  Uiso   1.00
O2271  O     0.08600   0.66675   0.58543   0.00000  Uiso   1.00
C2272  C     0.17300   0.63405   0.61850   0.00000  Uiso   1.00
Al2273 Al    0.06250   0.56250   0.68750   0.00000  Uiso   1.00
Al2274 Al    0.18750   0.56250   0.68750   0.00000  Uiso   1.00
Al2275 Al    0.18750   0.68750   0.56250   0.00000  Uiso   1.00
Al2276 Al    0.06250   0.68750   0.56250   0.00000  Uiso   1.00
O2277  O     0.00000   0.56250   0.67325   0.00000  Uiso   1.00
O2278  O     0.12500   0.68750   0.54825   0.00000  Uiso   1.00
O2279  O     0.00000   0.68750   0.57675   0.00000  Uiso   1.00
O2280  O     0.12500   0.56250   0.70175   0.00000  Uiso   1.00
C2281  C     0.00000   0.51500   0.73925   0.00000  Uiso   1.00
C2282  C     0.00000   0.53230   0.72075   0.00000  Uiso   1.00
C2283  C     0.12500   0.64000   0.61425   0.00000  Uiso   1.00
C2284  C     0.12500   0.65730   0.59575   0.00000  Uiso   1.00
C2285  C     0.00000   0.61000   0.73925   0.00000  Uiso   1.00
C2286  C     0.00000   0.59270   0.72075   0.00000  Uiso   1.00
C2287  C     0.12500   0.73500   0.61425   0.00000  Uiso   1.00
C2288  C     0.12500   0.71770   0.59575   0.00000  Uiso   1.00
C2289  C     0.00000   0.64000   0.51075   0.00000  Uiso   1.00
C2290  C     0.00000   0.65730   0.52925   0.00000  Uiso   1.00
C2291  C     0.12500   0.51500   0.63575   0.00000  Uiso   1.00
C2292  C     0.12500   0.53230   0.65425   0.00000  Uiso   1.00
C2293  C     0.00000   0.73500   0.51075   0.00000  Uiso   1.00
C2294  C     0.00000   0.71770   0.52925   0.00000  Uiso   1.00
C2295  C     0.12500   0.61000   0.63575   0.00000  Uiso   1.00
C2296  C     0.12500   0.59270   0.65425   0.00000  Uiso   1.00
O2297  O     0.28900   0.54175   0.71043   0.00000  Uiso   1.00
C2298  C     0.45200   0.50905   0.74350   0.00000  Uiso   1.00
O2299  O     0.41400   0.66675   0.58543   0.00000  Uiso   1.00
C2300  C     0.32700   0.63405   0.61850   0.00000  Uiso   1.00
O2301  O     0.46100   0.58325   0.71043   0.00000  Uiso   1.00
C2302  C     0.29800   0.61595   0.74350   0.00000  Uiso   1.00
O2303  O     0.33600   0.70825   0.58543   0.00000  Uiso   1.00
C2304  C     0.42300   0.74095   0.61850   0.00000  Uiso   1.00
O2305  O     0.46100   0.66675   0.53957   0.00000  Uiso   1.00
C2306  C     0.29800   0.63405   0.50650   0.00000  Uiso   1.00
O2307  O     0.33600   0.54175   0.66457   0.00000  Uiso   1.00
C2308  C     0.42300   0.50905   0.63150   0.00000  Uiso   1.00
O2309  O     0.28900   0.70825   0.53957   0.00000  Uiso   1.00
C2310  C     0.45200   0.74095   0.50650   0.00000  Uiso   1.00
O2311  O     0.41400   0.58325   0.66457   0.00000  Uiso   1.00
C2312  C     0.32700   0.61595   0.63150   0.00000  Uiso   1.00
O2313  O     0.46100   0.70825   0.53957   0.00000  Uiso   1.00
C2314  C     0.29800   0.74095   0.50650   0.00000  Uiso   1.00
O2315  O     0.33600   0.58325   0.66457   0.00000  Uiso   1.00
C2316  C     0.42300   0.61595   0.63150   0.00000  Uiso   1.00
O2317  O     0.28900   0.66675   0.53957   0.00000  Uiso   1.00
C2318  C     0.45200   0.63405   0.50650   0.00000  Uiso   1.00
O2319  O     0.41400   0.54175   0.66457   0.00000  Uiso   1.00
C2320  C     0.32700   0.50905   0.63150   0.00000  Uiso   1.00
O2321  O     0.28900   0.58325   0.71043   0.00000  Uiso   1.00
C2322  C     0.45200   0.61595   0.74350   0.00000  Uiso   1.00
O2323  O     0.41400   0.70825   0.58543   0.00000  Uiso   1.00
C2324  C     0.32700   0.74095   0.61850   0.00000  Uiso   1.00
O2325  O     0.46100   0.54175   0.71043   0.00000  Uiso   1.00
C2326  C     0.29800   0.50905   0.74350   0.00000  Uiso   1.00
O2327  O     0.33600   0.66675   0.58543   0.00000  Uiso   1.00
C2328  C     0.42300   0.63405   0.61850   0.00000  Uiso   1.00
Al2329 Al    0.31250   0.56250   0.68750   0.00000  Uiso   1.00
Al2330 Al    0.43750   0.56250   0.68750   0.00000  Uiso   1.00
Al2331 Al    0.43750   0.68750   0.56250   0.00000  Uiso   1.00
Al2332 Al    0.31250   0.68750   0.56250   0.00000  Uiso   1.00
O2333  O     0.25000   0.56250   0.67325   0.00000  Uiso   1.00
O2334  O     0.37500   0.68750   0.54825   0.00000  Uiso   1.00
O2335  O     0.25000   0.68750   0.57675   0.00000  Uiso   1.00
O2336  O     0.37500   0.56250   0.70175   0.00000  Uiso   1.00
C2337  C     0.25000   0.51500   0.73925   0.00000  Uiso   1.00
C2338  C     0.25000   0.53230   0.72075   0.00000  Uiso   1.00
C2339  C     0.37500   0.64000   0.61425   0.00000  Uiso   1.00
C2340  C     0.37500   0.65730   0.59575   0.00000  Uiso   1.00
C2341  C     0.25000   0.61000   0.73925   0.00000  Uiso   1.00
C2342  C     0.25000   0.59270   0.72075   0.00000  Uiso   1.00
C2343  C     0.37500   0.73500   0.61425   0.00000  Uiso   1.00
C2344  C     0.37500   0.71770   0.59575   0.00000  Uiso   1.00
C2345  C     0.25000   0.64000   0.51075   0.00000  Uiso   1.00
C2346  C     0.25000   0.65730   0.52925   0.00000  Uiso   1.00
C2347  C     0.37500   0.51500   0.63575   0.00000  Uiso   1.00
C2348  C     0.37500   0.53230   0.65425   0.00000  Uiso   1.00
C2349  C     0.25000   0.73500   0.51075   0.00000  Uiso   1.00
C2350  C     0.25000   0.71770   0.52925   0.00000  Uiso   1.00
C2351  C     0.37500   0.61000   0.63575   0.00000  Uiso   1.00
C2352  C     0.37500   0.59270   0.65425   0.00000  Uiso   1.00
O2353  O     0.53900   0.54175   0.71043   0.00000  Uiso   1.00
C2354  C     0.70200   0.50905   0.74350   0.00000  Uiso   1.00
O2355  O     0.66400   0.66675   0.58543   0.00000  Uiso   1.00
C2356  C     0.57700   0.63405   0.61850   0.00000  Uiso   1.00
O2357  O     0.71100   0.58325   0.71043   0.00000  Uiso   1.00
C2358  C     0.54800   0.61595   0.74350   0.00000  Uiso   1.00
O2359  O     0.58600   0.70825   0.58543   0.00000  Uiso   1.00
C2360  C     0.67300   0.74095   0.61850   0.00000  Uiso   1.00
O2361  O     0.71100   0.66675   0.53957   0.00000  Uiso   1.00
C2362  C     0.54800   0.63405   0.50650   0.00000  Uiso   1.00
O2363  O     0.58600   0.54175   0.66457   0.00000  Uiso   1.00
C2364  C     0.67300   0.50905   0.63150   0.00000  Uiso   1.00
O2365  O     0.53900   0.70825   0.53957   0.00000  Uiso   1.00
C2366  C     0.70200   0.74095   0.50650   0.00000  Uiso   1.00
O2367  O     0.66400   0.58325   0.66457   0.00000  Uiso   1.00
C2368  C     0.57700   0.61595   0.63150   0.00000  Uiso   1.00
O2369  O     0.71100   0.70825   0.53957   0.00000  Uiso   1.00
C2370  C     0.54800   0.74095   0.50650   0.00000  Uiso   1.00
O2371  O     0.58600   0.58325   0.66457   0.00000  Uiso   1.00
C2372  C     0.67300   0.61595   0.63150   0.00000  Uiso   1.00
O2373  O     0.53900   0.66675   0.53957   0.00000  Uiso   1.00
C2374  C     0.70200   0.63405   0.50650   0.00000  Uiso   1.00
O2375  O     0.66400   0.54175   0.66457   0.00000  Uiso   1.00
C2376  C     0.57700   0.50905   0.63150   0.00000  Uiso   1.00
O2377  O     0.53900   0.58325   0.71043   0.00000  Uiso   1.00
C2378  C     0.70200   0.61595   0.74350   0.00000  Uiso   1.00
O2379  O     0.66400   0.70825   0.58543   0.00000  Uiso   1.00
C2380  C     0.57700   0.74095   0.61850   0.00000  Uiso   1.00
O2381  O     0.71100   0.54175   0.71043   0.00000  Uiso   1.00
C2382  C     0.54800   0.50905   0.74350   0.00000  Uiso   1.00
O2383  O     0.58600   0.66675   0.58543   0.00000  Uiso   1.00
C2384  C     0.67300   0.63405   0.61850   0.00000  Uiso   1.00
Al2385 Al    0.56250   0.56250   0.68750   0.00000  Uiso   1.00
Al2386 Al    0.68750   0.56250   0.68750   0.00000  Uiso   1.00
Al2387 Al    0.68750   0.68750   0.56250   0.00000  Uiso   1.00
Al2388 Al    0.56250   0.68750   0.56250   0.00000  Uiso   1.00
O2389  O     0.50000   0.56250   0.67325   0.00000  Uiso   1.00
O2390  O     0.62500   0.68750   0.54825   0.00000  Uiso   1.00
O2391  O     0.50000   0.68750   0.57675   0.00000  Uiso   1.00
O2392  O     0.62500   0.56250   0.70175   0.00000  Uiso   1.00
C2393  C     0.50000   0.51500   0.73925   0.00000  Uiso   1.00
C2394  C     0.50000   0.53230   0.72075   0.00000  Uiso   1.00
C2395  C     0.62500   0.64000   0.61425   0.00000  Uiso   1.00
C2396  C     0.62500   0.65730   0.59575   0.00000  Uiso   1.00
C2397  C     0.50000   0.61000   0.73925   0.00000  Uiso   1.00
C2398  C     0.50000   0.59270   0.72075   0.00000  Uiso   1.00
C2399  C     0.62500   0.73500   0.61425   0.00000  Uiso   1.00
C2400  C     0.62500   0.71770   0.59575   0.00000  Uiso   1.00
C2401  C     0.50000   0.64000   0.51075   0.00000  Uiso   1.00
C2402  C     0.50000   0.65730   0.52925   0.00000  Uiso   1.00
C2403  C     0.62500   0.51500   0.63575   0.00000  Uiso   1.00
C2404  C     0.62500   0.53230   0.65425   0.00000  Uiso   1.00
C2405  C     0.50000   0.73500   0.51075   0.00000  Uiso   1.00
C2406  C     0.50000   0.71770   0.52925   0.00000  Uiso   1.00
C2407  C     0.62500   0.61000   0.63575   0.00000  Uiso   1.00
C2408  C     0.62500   0.59270   0.65425   0.00000  Uiso   1.00
O2409  O     0.78900   0.54175   0.71043   0.00000  Uiso   1.00
C2410  C     0.95200   0.50905   0.74350   0.00000  Uiso   1.00
O2411  O     0.91400   0.66675   0.58543   0.00000  Uiso   1.00
C2412  C     0.82700   0.63405   0.61850   0.00000  Uiso   1.00
O2413  O     0.96100   0.58325   0.71043   0.00000  Uiso   1.00
C2414  C     0.79800   0.61595   0.74350   0.00000  Uiso   1.00
O2415  O     0.83600   0.70825   0.58543   0.00000  Uiso   1.00
C2416  C     0.92300   0.74095   0.61850   0.00000  Uiso   1.00
O2417  O     0.96100   0.66675   0.53957   0.00000  Uiso   1.00
C2418  C     0.79800   0.63405   0.50650   0.00000  Uiso   1.00
O2419  O     0.83600   0.54175   0.66457   0.00000  Uiso   1.00
C2420  C     0.92300   0.50905   0.63150   0.00000  Uiso   1.00
O2421  O     0.78900   0.70825   0.53957   0.00000  Uiso   1.00
C2422  C     0.95200   0.74095   0.50650   0.00000  Uiso   1.00
O2423  O     0.91400   0.58325   0.66457   0.00000  Uiso   1.00
C2424  C     0.82700   0.61595   0.63150   0.00000  Uiso   1.00
O2425  O     0.96100   0.70825   0.53957   0.00000  Uiso   1.00
C2426  C     0.79800   0.74095   0.50650   0.00000  Uiso   1.00
O2427  O     0.83600   0.58325   0.66457   0.00000  Uiso   1.00
C2428  C     0.92300   0.61595   0.63150   0.00000  Uiso   1.00
O2429  O     0.78900   0.66675   0.53957   0.00000  Uiso   1.00
C2430  C     0.95200   0.63405   0.50650   0.00000  Uiso   1.00
O2431  O     0.91400   0.54175   0.66457   0.00000  Uiso   1.00
C2432  C     0.82700   0.50905   0.63150   0.00000  Uiso   1.00
O2433  O     0.78900   0.58325   0.71043   0.00000  Uiso   1.00
C2434  C     0.95200   0.61595   0.74350   0.00000  Uiso   1.00
O2435  O     0.91400   0.70825   0.58543   0.00000  Uiso   1.00
C2436  C     0.82700   0.74095   0.61850   0.00000  Uiso   1.00
O2437  O     0.96100   0.54175   0.71043   0.00000  Uiso   1.00
C2438  C     0.79800   0.50905   0.74350   0.00000  Uiso   1.00
O2439  O     0.83600   0.66675   0.58543   0.00000  Uiso   1.00
C2440  C     0.92300   0.63405   0.61850   0.00000  Uiso   1.00
Al2441 Al    0.81250   0.56250   0.68750   0.00000  Uiso   1.00
Al2442 Al    0.93750   0.56250   0.68750   0.00000  Uiso   1.00
Al2443 Al    0.93750   0.68750   0.56250   0.00000  Uiso   1.00
Al2444 Al    0.81250   0.68750   0.56250   0.00000  Uiso   1.00
O2445  O     0.75000   0.56250   0.67325   0.00000  Uiso   1.00
O2446  O     0.87500   0.68750   0.54825   0.00000  Uiso   1.00
O2447  O     0.75000   0.68750   0.57675   0.00000  Uiso   1.00
O2448  O     0.87500   0.56250   0.70175   0.00000  Uiso   1.00
C2449  C     0.75000   0.51500   0.73925   0.00000  Uiso   1.00
C2450  C     0.75000   0.53230   0.72075   0.00000  Uiso   1.00
C2451  C     0.87500   0.64000   0.61425   0.00000  Uiso   1.00
C2452  C     0.87500   0.65730   0.59575   0.00000  Uiso   1.00
C2453  C     0.75000   0.61000   0.73925   0.00000  Uiso   1.00
C2454  C     0.75000   0.59270   0.72075   0.00000  Uiso   1.00
C2455  C     0.87500   0.73500   0.61425   0.00000  Uiso   1.00
C2456  C     0.87500   0.71770   0.59575   0.00000  Uiso   1.00
C2457  C     0.75000   0.64000   0.51075   0.00000  Uiso   1.00
C2458  C     0.75000   0.65730   0.52925   0.00000  Uiso   1.00
C2459  C     0.87500   0.51500   0.63575   0.00000  Uiso   1.00
C2460  C     0.87500   0.53230   0.65425   0.00000  Uiso   1.00
C2461  C     0.75000   0.73500   0.51075   0.00000  Uiso   1.00
C2462  C     0.75000   0.71770   0.52925   0.00000  Uiso   1.00
C2463  C     0.87500   0.61000   0.63575   0.00000  Uiso   1.00
C2464  C     0.87500   0.59270   0.65425   0.00000  Uiso   1.00
O2465  O     0.03900   0.79175   0.71043   0.00000  Uiso   1.00
C2466  C     0.20200   0.75905   0.74350   0.00000  Uiso   1.00
O2467  O     0.16400   0.91675   0.58543   0.00000  Uiso   1.00
C2468  C     0.07700   0.88405   0.61850   0.00000  Uiso   1.00
O2469  O     0.21100   0.83325   0.71043   0.00000  Uiso   1.00
C2470  C     0.04800   0.86595   0.74350   0.00000  Uiso   1.00
O2471  O     0.08600   0.95825   0.58543   0.00000  Uiso   1.00
C2472  C     0.17300   0.99095   0.61850   0.00000  Uiso   1.00
O2473  O     0.21100   0.91675   0.53957   0.00000  Uiso   1.00
C2474  C     0.04800   0.88405   0.50650   0.00000  Uiso   1.00
O2475  O     0.08600   0.79175   0.66457   0.00000  Uiso   1.00
C2476  C     0.17300   0.75905   0.63150   0.00000  Uiso   1.00
O2477  O     0.03900   0.95825   0.53957   0.00000  Uiso   1.00
C2478  C     0.20200   0.99095   0.50650   0.00000  Uiso   1.00
O2479  O     0.16400   0.83325   0.66457   0.00000  Uiso   1.00
C2480  C     0.07700   0.86595   0.63150   0.00000  Uiso   1.00
O2481  O     0.21100   0.95825   0.53957   0.00000  Uiso   1.00
C2482  C     0.04800   0.99095   0.50650   0.00000  Uiso   1.00
O2483  O     0.08600   0.83325   0.66457   0.00000  Uiso   1.00
C2484  C     0.17300   0.86595   0.63150   0.00000  Uiso   1.00
O2485  O     0.03900   0.91675   0.53957   0.00000  Uiso   1.00
C2486  C     0.20200   0.88405   0.50650   0.00000  Uiso   1.00
O2487  O     0.16400   0.79175   0.66457   0.00000  Uiso   1.00
C2488  C     0.07700   0.75905   0.63150   0.00000  Uiso   1.00
O2489  O     0.03900   0.83325   0.71043   0.00000  Uiso   1.00
C2490  C     0.20200   0.86595   0.74350   0.00000  Uiso   1.00
O2491  O     0.16400   0.95825   0.58543   0.00000  Uiso   1.00
C2492  C     0.07700   0.99095   0.61850   0.00000  Uiso   1.00
O2493  O     0.21100   0.79175   0.71043   0.00000  Uiso   1.00
C2494  C     0.04800   0.75905   0.74350   0.00000  Uiso   1.00
O2495  O     0.08600   0.91675   0.58543   0.00000  Uiso   1.00
C2496  C     0.17300   0.88405   0.61850   0.00000  Uiso   1.00
Al2497 Al    0.06250   0.81250   0.68750   0.00000  Uiso   1.00
Al2498 Al    0.18750   0.81250   0.68750   0.00000  Uiso   1.00
Al2499 Al    0.18750   0.93750   0.56250   0.00000  Uiso   1.00
Al2500 Al    0.06250   0.93750   0.56250   0.00000  Uiso   1.00
O2501  O     0.00000   0.81250   0.67325   0.00000  Uiso   1.00
O2502  O     0.12500   0.93750   0.54825   0.00000  Uiso   1.00
O2503  O     0.00000   0.93750   0.57675   0.00000  Uiso   1.00
O2504  O     0.12500   0.81250   0.70175   0.00000  Uiso   1.00
C2505  C     0.00000   0.76500   0.73925   0.00000  Uiso   1.00
C2506  C     0.00000   0.78230   0.72075   0.00000  Uiso   1.00
C2507  C     0.12500   0.89000   0.61425   0.00000  Uiso   1.00
C2508  C     0.12500   0.90730   0.59575   0.00000  Uiso   1.00
C2509  C     0.00000   0.86000   0.73925   0.00000  Uiso   1.00
C2510  C     0.00000   0.84270   0.72075   0.00000  Uiso   1.00
C2511  C     0.12500   0.98500   0.61425   0.00000  Uiso   1.00
C2512  C     0.12500   0.96770   0.59575   0.00000  Uiso   1.00
C2513  C     0.00000   0.89000   0.51075   0.00000  Uiso   1.00
C2514  C     0.00000   0.90730   0.52925   0.00000  Uiso   1.00
C2515  C     0.12500   0.76500   0.63575   0.00000  Uiso   1.00
C2516  C     0.12500   0.78230   0.65425   0.00000  Uiso   1.00
C2517  C     0.00000   0.98500   0.51075   0.00000  Uiso   1.00
C2518  C     0.00000   0.96770   0.52925   0.00000  Uiso   1.00
C2519  C     0.12500   0.86000   0.63575   0.00000  Uiso   1.00
C2520  C     0.12500   0.84270   0.65425   0.00000  Uiso   1.00
O2521  O     0.28900   0.79175   0.71043   0.00000  Uiso   1.00
C2522  C     0.45200   0.75905   0.74350   0.00000  Uiso   1.00
O2523  O     0.41400   0.91675   0.58543   0.00000  Uiso   1.00
C2524  C     0.32700   0.88405   0.61850   0.00000  Uiso   1.00
O2525  O     0.46100   0.83325   0.71043   0.00000  Uiso   1.00
C2526  C     0.29800   0.86595   0.74350   0.00000  Uiso   1.00
O2527  O     0.33600   0.95825   0.58543   0.00000  Uiso   1.00
C2528  C     0.42300   0.99095   0.61850   0.00000  Uiso   1.00
O2529  O     0.46100   0.91675   0.53957   0.00000  Uiso   1.00
C2530  C     0.29800   0.88405   0.50650   0.00000  Uiso   1.00
O2531  O     0.33600   0.79175   0.66457   0.00000  Uiso   1.00
C2532  C     0.42300   0.75905   0.63150   0.00000  Uiso   1.00
O2533  O     0.28900   0.95825   0.53957   0.00000  Uiso   1.00
C2534  C     0.45200   0.99095   0.50650   0.00000  Uiso   1.00
O2535  O     0.41400   0.83325   0.66457   0.00000  Uiso   1.00
C2536  C     0.32700   0.86595   0.63150   0.00000  Uiso   1.00
O2537  O     0.46100   0.95825   0.53957   0.00000  Uiso   1.00
C2538  C     0.29800   0.99095   0.50650   0.00000  Uiso   1.00
O2539  O     0.33600   0.83325   0.66457   0.00000  Uiso   1.00
C2540  C     0.42300   0.86595   0.63150   0.00000  Uiso   1.00
O2541  O     0.28900   0.91675   0.53957   0.00000  Uiso   1.00
C2542  C     0.45200   0.88405   0.50650   0.00000  Uiso   1.00
O2543  O     0.41400   0.79175   0.66457   0.00000  Uiso   1.00
C2544  C     0.32700   0.75905   0.63150   0.00000  Uiso   1.00
O2545  O     0.28900   0.83325   0.71043   0.00000  Uiso   1.00
C2546  C     0.45200   0.86595   0.74350   0.00000  Uiso   1.00
O2547  O     0.41400   0.95825   0.58543   0.00000  Uiso   1.00
C2548  C     0.32700   0.99095   0.61850   0.00000  Uiso   1.00
O2549  O     0.46100   0.79175   0.71043   0.00000  Uiso   1.00
C2550  C     0.29800   0.75905   0.74350   0.00000  Uiso   1.00
O2551  O     0.33600   0.91675   0.58543   0.00000  Uiso   1.00
C2552  C     0.42300   0.88405   0.61850   0.00000  Uiso   1.00
Al2553 Al    0.31250   0.81250   0.68750   0.00000  Uiso   1.00
Al2554 Al    0.43750   0.81250   0.68750   0.00000  Uiso   1.00
Al2555 Al    0.43750   0.93750   0.56250   0.00000  Uiso   1.00
Al2556 Al    0.31250   0.93750   0.56250   0.00000  Uiso   1.00
O2557  O     0.25000   0.81250   0.67325   0.00000  Uiso   1.00
O2558  O     0.37500   0.93750   0.54825   0.00000  Uiso   1.00
O2559  O     0.25000   0.93750   0.57675   0.00000  Uiso   1.00
O2560  O     0.37500   0.81250   0.70175   0.00000  Uiso   1.00
C2561  C     0.25000   0.76500   0.73925   0.00000  Uiso   1.00
C2562  C     0.25000   0.78230   0.72075   0.00000  Uiso   1.00
C2563  C     0.37500   0.89000   0.61425   0.00000  Uiso   1.00
C2564  C     0.37500   0.90730   0.59575   0.00000  Uiso   1.00
C2565  C     0.25000   0.86000   0.73925   0.00000  Uiso   1.00
C2566  C     0.25000   0.84270   0.72075   0.00000  Uiso   1.00
C2567  C     0.37500   0.98500   0.61425   0.00000  Uiso   1.00
C2568  C     0.37500   0.96770   0.59575   0.00000  Uiso   1.00
C2569  C     0.25000   0.89000   0.51075   0.00000  Uiso   1.00
C2570  C     0.25000   0.90730   0.52925   0.00000  Uiso   1.00
C2571  C     0.37500   0.76500   0.63575   0.00000  Uiso   1.00
C2572  C     0.37500   0.78230   0.65425   0.00000  Uiso   1.00
C2573  C     0.25000   0.98500   0.51075   0.00000  Uiso   1.00
C2574  C     0.25000   0.96770   0.52925   0.00000  Uiso   1.00
C2575  C     0.37500   0.86000   0.63575   0.00000  Uiso   1.00
C2576  C     0.37500   0.84270   0.65425   0.00000  Uiso   1.00
O2577  O     0.53900   0.79175   0.71043   0.00000  Uiso   1.00
C2578  C     0.70200   0.75905   0.74350   0.00000  Uiso   1.00
O2579  O     0.66400   0.91675   0.58543   0.00000  Uiso   1.00
C2580  C     0.57700   0.88405   0.61850   0.00000  Uiso   1.00
O2581  O     0.71100   0.83325   0.71043   0.00000  Uiso   1.00
C2582  C     0.54800   0.86595   0.74350   0.00000  Uiso   1.00
O2583  O     0.58600   0.95825   0.58543   0.00000  Uiso   1.00
C2584  C     0.67300   0.99095   0.61850   0.00000  Uiso   1.00
O2585  O     0.71100   0.91675   0.53957   0.00000  Uiso   1.00
C2586  C     0.54800   0.88405   0.50650   0.00000  Uiso   1.00
O2587  O     0.58600   0.79175   0.66457   0.00000  Uiso   1.00
C2588  C     0.67300   0.75905   0.63150   0.00000  Uiso   1.00
O2589  O     0.53900   0.95825   0.53957   0.00000  Uiso   1.00
C2590  C     0.70200   0.99095   0.50650   0.00000  Uiso   1.00
O2591  O     0.66400   0.83325   0.66457   0.00000  Uiso   1.00
C2592  C     0.57700   0.86595   0.63150   0.00000  Uiso   1.00
O2593  O     0.71100   0.95825   0.53957   0.00000  Uiso   1.00
C2594  C     0.54800   0.99095   0.50650   0.00000  Uiso   1.00
O2595  O     0.58600   0.83325   0.66457   0.00000  Uiso   1.00
C2596  C     0.67300   0.86595   0.63150   0.00000  Uiso   1.00
O2597  O     0.53900   0.91675   0.53957   0.00000  Uiso   1.00
C2598  C     0.70200   0.88405   0.50650   0.00000  Uiso   1.00
O2599  O     0.66400   0.79175   0.66457   0.00000  Uiso   1.00
C2600  C     0.57700   0.75905   0.63150   0.00000  Uiso   1.00
O2601  O     0.53900   0.83325   0.71043   0.00000  Uiso   1.00
C2602  C     0.70200   0.86595   0.74350   0.00000  Uiso   1.00
O2603  O     0.66400   0.95825   0.58543   0.00000  Uiso   1.00
C2604  C     0.57700   0.99095   0.61850   0.00000  Uiso   1.00
O2605  O     0.71100   0.79175   0.71043   0.00000  Uiso   1.00
C2606  C     0.54800   0.75905   0.74350   0.00000  Uiso   1.00
O2607  O     0.58600   0.91675   0.58543   0.00000  Uiso   1.00
C2608  C     0.67300   0.88405   0.61850   0.00000  Uiso   1.00
Al2609 Al    0.56250   0.81250   0.68750   0.00000  Uiso   1.00
Al2610 Al    0.68750   0.81250   0.68750   0.00000  Uiso   1.00
Al2611 Al    0.68750   0.93750   0.56250   0.00000  Uiso   1.00
Al2612 Al    0.56250   0.93750   0.56250   0.00000  Uiso   1.00
O2613  O     0.50000   0.81250   0.67325   0.00000  Uiso   1.00
O2614  O     0.62500   0.93750   0.54825   0.00000  Uiso   1.00
O2615  O     0.50000   0.93750   0.57675   0.00000  Uiso   1.00
O2616  O     0.62500   0.81250   0.70175   0.00000  Uiso   1.00
C2617  C     0.50000   0.76500   0.73925   0.00000  Uiso   1.00
C2618  C     0.50000   0.78230   0.72075   0.00000  Uiso   1.00
C2619  C     0.62500   0.89000   0.61425   0.00000  Uiso   1.00
C2620  C     0.62500   0.90730   0.59575   0.00000  Uiso   1.00
C2621  C     0.50000   0.86000   0.73925   0.00000  Uiso   1.00
C2622  C     0.50000   0.84270   0.72075   0.00000  Uiso   1.00
C2623  C     0.62500   0.98500   0.61425   0.00000  Uiso   1.00
C2624  C     0.62500   0.96770   0.59575   0.00000  Uiso   1.00
C2625  C     0.50000   0.89000   0.51075   0.00000  Uiso   1.00
C2626  C     0.50000   0.90730   0.52925   0.00000  Uiso   1.00
C2627  C     0.62500   0.76500   0.63575   0.00000  Uiso   1.00
C2628  C     0.62500   0.78230   0.65425   0.00000  Uiso   1.00
C2629  C     0.50000   0.98500   0.51075   0.00000  Uiso   1.00
C2630  C     0.50000   0.96770   0.52925   0.00000  Uiso   1.00
C2631  C     0.62500   0.86000   0.63575   0.00000  Uiso   1.00
C2632  C     0.62500   0.84270   0.65425   0.00000  Uiso   1.00
O2633  O     0.78900   0.79175   0.71043   0.00000  Uiso   1.00
C2634  C     0.95200   0.75905   0.74350   0.00000  Uiso   1.00
O2635  O     0.91400   0.91675   0.58543   0.00000  Uiso   1.00
C2636  C     0.82700   0.88405   0.61850   0.00000  Uiso   1.00
O2637  O     0.96100   0.83325   0.71043   0.00000  Uiso   1.00
C2638  C     0.79800   0.86595   0.74350   0.00000  Uiso   1.00
O2639  O     0.83600   0.95825   0.58543   0.00000  Uiso   1.00
C2640  C     0.92300   0.99095   0.61850   0.00000  Uiso   1.00
O2641  O     0.96100   0.91675   0.53957   0.00000  Uiso   1.00
C2642  C     0.79800   0.88405   0.50650   0.00000  Uiso   1.00
O2643  O     0.83600   0.79175   0.66457   0.00000  Uiso   1.00
C2644  C     0.92300   0.75905   0.63150   0.00000  Uiso   1.00
O2645  O     0.78900   0.95825   0.53957   0.00000  Uiso   1.00
C2646  C     0.95200   0.99095   0.50650   0.00000  Uiso   1.00
O2647  O     0.91400   0.83325   0.66457   0.00000  Uiso   1.00
C2648  C     0.82700   0.86595   0.63150   0.00000  Uiso   1.00
O2649  O     0.96100   0.95825   0.53957   0.00000  Uiso   1.00
C2650  C     0.79800   0.99095   0.50650   0.00000  Uiso   1.00
O2651  O     0.83600   0.83325   0.66457   0.00000  Uiso   1.00
C2652  C     0.92300   0.86595   0.63150   0.00000  Uiso   1.00
O2653  O     0.78900   0.91675   0.53957   0.00000  Uiso   1.00
C2654  C     0.95200   0.88405   0.50650   0.00000  Uiso   1.00
O2655  O     0.91400   0.79175   0.66457   0.00000  Uiso   1.00
C2656  C     0.82700   0.75905   0.63150   0.00000  Uiso   1.00
O2657  O     0.78900   0.83325   0.71043   0.00000  Uiso   1.00
C2658  C     0.95200   0.86595   0.74350   0.00000  Uiso   1.00
O2659  O     0.91400   0.95825   0.58543   0.00000  Uiso   1.00
C2660  C     0.82700   0.99095   0.61850   0.00000  Uiso   1.00
O2661  O     0.96100   0.79175   0.71043   0.00000  Uiso   1.00
C2662  C     0.79800   0.75905   0.74350   0.00000  Uiso   1.00
O2663  O     0.83600   0.91675   0.58543   0.00000  Uiso   1.00
C2664  C     0.92300   0.88405   0.61850   0.00000  Uiso   1.00
Al2665 Al    0.81250   0.81250   0.68750   0.00000  Uiso   1.00
Al2666 Al    0.93750   0.81250   0.68750   0.00000  Uiso   1.00
Al2667 Al    0.93750   0.93750   0.56250   0.00000  Uiso   1.00
Al2668 Al    0.81250   0.93750   0.56250   0.00000  Uiso   1.00
O2669  O     0.75000   0.81250   0.67325   0.00000  Uiso   1.00
O2670  O     0.87500   0.93750   0.54825   0.00000  Uiso   1.00
O2671  O     0.75000   0.93750   0.57675   0.00000  Uiso   1.00
O2672  O     0.87500   0.81250   0.70175   0.00000  Uiso   1.00
C2673  C     0.75000   0.76500   0.73925   0.00000  Uiso   1.00
C2674  C     0.75000   0.78230   0.72075   0.00000  Uiso   1.00
C2675  C     0.87500   0.89000   0.61425   0.00000  Uiso   1.00
C2676  C     0.87500   0.90730   0.59575   0.00000  Uiso   1.00
C2677  C     0.75000   0.86000   0.73925   0.00000  Uiso   1.00
C2678  C     0.75000   0.84270   0.72075   0.00000  Uiso   1.00
C2679  C     0.87500   0.98500   0.61425   0.00000  Uiso   1.00
C2680  C     0.87500   0.96770   0.59575   0.00000  Uiso   1.00
C2681  C     0.75000   0.89000   0.51075   0.00000  Uiso   1.00
C2682  C     0.75000   0.90730   0.52925   0.00000  Uiso   1.00
C2683  C     0.87500   0.76500   0.63575   0.00000  Uiso   1.00
C2684  C     0.87500   0.78230   0.65425   0.00000  Uiso   1.00
C2685  C     0.75000   0.98500   0.51075   0.00000  Uiso   1.00
C2686  C     0.75000   0.96770   0.52925   0.00000  Uiso   1.00
C2687  C     0.87500   0.86000   0.63575   0.00000  Uiso   1.00
C2688  C     0.87500   0.84270   0.65425   0.00000  Uiso   1.00
O2689  O     0.03900   0.04175   0.96043   0.00000  Uiso   1.00
C2690  C     0.20200   0.00905   0.99350   0.00000  Uiso   1.00
O2691  O     0.16400   0.16675   0.83543   0.00000  Uiso   1.00
C2692  C     0.07700   0.13405   0.86850   0.00000  Uiso   1.00
O2693  O     0.21100   0.08325   0.96043   0.00000  Uiso   1.00
C2694  C     0.04800   0.11595   0.99350   0.00000  Uiso   1.00
O2695  O     0.08600   0.20825   0.83543   0.00000  Uiso   1.00
C2696  C     0.17300   0.24095   0.86850   0.00000  Uiso   1.00
O2697  O     0.21100   0.16675   0.78957   0.00000  Uiso   1.00
C2698  C     0.04800   0.13405   0.75650   0.00000  Uiso   1.00
O2699  O     0.08600   0.04175   0.91458   0.00000  Uiso   1.00
C2700  C     0.17300   0.00905   0.88150   0.00000  Uiso   1.00
O2701  O     0.03900   0.20825   0.78957   0.00000  Uiso   1.00
C2702  C     0.20200   0.24095   0.75650   0.00000  Uiso   1.00
O2703  O     0.16400   0.08325   0.91458   0.00000  Uiso   1.00
C2704  C     0.07700   0.11595   0.88150   0.00000  Uiso   1.00
O2705  O     0.21100   0.20825   0.78957   0.00000  Uiso   1.00
C2706  C     0.04800   0.24095   0.75650   0.00000  Uiso   1.00
O2707  O     0.08600   0.08325   0.91458   0.00000  Uiso   1.00
C2708  C     0.17300   0.11595   0.88150   0.00000  Uiso   1.00
O2709  O     0.03900   0.16675   0.78957   0.00000  Uiso   1.00
C2710  C     0.20200   0.13405   0.75650   0.00000  Uiso   1.00
O2711  O     0.16400   0.04175   0.91458   0.00000  Uiso   1.00
C2712  C     0.07700   0.00905   0.88150   0.00000  Uiso   1.00
O2713  O     0.03900   0.08325   0.96043   0.00000  Uiso   1.00
C2714  C     0.20200   0.11595   0.99350   0.00000  Uiso   1.00
O2715  O     0.16400   0.20825   0.83543   0.00000  Uiso   1.00
C2716  C     0.07700   0.24095   0.86850   0.00000  Uiso   1.00
O2717  O     0.21100   0.04175   0.96043   0.00000  Uiso   1.00
C2718  C     0.04800   0.00905   0.99350   0.00000  Uiso   1.00
O2719  O     0.08600   0.16675   0.83543   0.00000  Uiso   1.00
C2720  C     0.17300   0.13405   0.86850   0.00000  Uiso   1.00
Al2721 Al    0.06250   0.06250   0.93750   0.00000  Uiso   1.00
Al2722 Al    0.18750   0.06250   0.93750   0.00000  Uiso   1.00
Al2723 Al    0.18750   0.18750   0.81250   0.00000  Uiso   1.00
Al2724 Al    0.06250   0.18750   0.81250   0.00000  Uiso   1.00
O2725  O     0.00000   0.06250   0.92325   0.00000  Uiso   1.00
O2726  O     0.12500   0.18750   0.79825   0.00000  Uiso   1.00
O2727  O     0.00000   0.18750   0.82675   0.00000  Uiso   1.00
O2728  O     0.12500   0.06250   0.95175   0.00000  Uiso   1.00
C2729  C     0.00000   0.01500   0.98925   0.00000  Uiso   1.00
C2730  C     0.00000   0.03230   0.97075   0.00000  Uiso   1.00
C2731  C     0.12500   0.14000   0.86425   0.00000  Uiso   1.00
C2732  C     0.12500   0.15730   0.84575   0.00000  Uiso   1.00
C2733  C     0.00000   0.11000   0.98925   0.00000  Uiso   1.00
C2734  C     0.00000   0.09270   0.97075   0.00000  Uiso   1.00
C2735  C     0.12500   0.23500   0.86425   0.00000  Uiso   1.00
C2736  C     0.12500   0.21770   0.84575   0.00000  Uiso   1.00
C2737  C     0.00000   0.14000   0.76075   0.00000  Uiso   1.00
C2738  C     0.00000   0.15730   0.77925   0.00000  Uiso   1.00
C2739  C     0.12500   0.01500   0.88575   0.00000  Uiso   1.00
C2740  C     0.12500   0.03230   0.90425   0.00000  Uiso   1.00
C2741  C     0.00000   0.23500   0.76075   0.00000  Uiso   1.00
C2742  C     0.00000   0.21770   0.77925   0.00000  Uiso   1.00
C2743  C     0.12500   0.11000   0.88575   0.00000  Uiso   1.00
C2744  C     0.12500   0.09270   0.90425   0.00000  Uiso   1.00
O2745  O     0.28900   0.04175   0.96043   0.00000  Uiso   1.00
C2746  C     0.45200   0.00905   0.99350   0.00000  Uiso   1.00
O2747  O     0.41400   0.16675   0.83543   0.00000  Uiso   1.00
C2748  C     0.32700   0.13405   0.86850   0.00000  Uiso   1.00
O2749  O     0.46100   0.08325   0.96043   0.00000  Uiso   1.00
C2750  C     0.29800   0.11595   0.99350   0.00000  Uiso   1.00
O2751  O     0.33600   0.20825   0.83543   0.00000  Uiso   1.00
C2752  C     0.42300   0.24095   0.86850   0.00000  Uiso   1.00
O2753  O     0.46100   0.16675   0.78957   0.00000  Uiso   1.00
C2754  C     0.29800   0.13405   0.75650   0.00000  Uiso   1.00
O2755  O     0.33600   0.04175   0.91458   0.00000  Uiso   1.00
C2756  C     0.42300   0.00905   0.88150   0.00000  Uiso   1.00
O2757  O     0.28900   0.20825   0.78957   0.00000  Uiso   1.00
C2758  C     0.45200   0.24095   0.75650   0.00000  Uiso   1.00
O2759  O     0.41400   0.08325   0.91458   0.00000  Uiso   1.00
C2760  C     0.32700   0.11595   0.88150   0.00000  Uiso   1.00
O2761  O     0.46100   0.20825   0.78957   0.00000  Uiso   1.00
C2762  C     0.29800   0.24095   0.75650   0.00000  Uiso   1.00
O2763  O     0.33600   0.08325   0.91458   0.00000  Uiso   1.00
C2764  C     0.42300   0.11595   0.88150   0.00000  Uiso   1.00
O2765  O     0.28900   0.16675   0.78957   0.00000  Uiso   1.00
C2766  C     0.45200   0.13405   0.75650   0.00000  Uiso   1.00
O2767  O     0.41400   0.04175   0.91458   0.00000  Uiso   1.00
C2768  C     0.32700   0.00905   0.88150   0.00000  Uiso   1.00
O2769  O     0.28900   0.08325   0.96043   0.00000  Uiso   1.00
C2770  C     0.45200   0.11595   0.99350   0.00000  Uiso   1.00
O2771  O     0.41400   0.20825   0.83543   0.00000  Uiso   1.00
C2772  C     0.32700   0.24095   0.86850   0.00000  Uiso   1.00
O2773  O     0.46100   0.04175   0.96043   0.00000  Uiso   1.00
C2774  C     0.29800   0.00905   0.99350   0.00000  Uiso   1.00
O2775  O     0.33600   0.16675   0.83543   0.00000  Uiso   1.00
C2776  C     0.42300   0.13405   0.86850   0.00000  Uiso   1.00
Al2777 Al    0.31250   0.06250   0.93750   0.00000  Uiso   1.00
Al2778 Al    0.43750   0.06250   0.93750   0.00000  Uiso   1.00
Al2779 Al    0.43750   0.18750   0.81250   0.00000  Uiso   1.00
Al2780 Al    0.31250   0.18750   0.81250   0.00000  Uiso   1.00
O2781  O     0.25000   0.06250   0.92325   0.00000  Uiso   1.00
O2782  O     0.37500   0.18750   0.79825   0.00000  Uiso   1.00
O2783  O     0.25000   0.18750   0.82675   0.00000  Uiso   1.00
O2784  O     0.37500   0.06250   0.95175   0.00000  Uiso   1.00
C2785  C     0.25000   0.01500   0.98925   0.00000  Uiso   1.00
C2786  C     0.25000   0.03230   0.97075   0.00000  Uiso   1.00
C2787  C     0.37500   0.14000   0.86425   0.00000  Uiso   1.00
C2788  C     0.37500   0.15730   0.84575   0.00000  Uiso   1.00
C2789  C     0.25000   0.11000   0.98925   0.00000  Uiso   1.00
C2790  C     0.25000   0.09270   0.97075   0.00000  Uiso   1.00
C2791  C     0.37500   0.23500   0.86425   0.00000  Uiso   1.00
C2792  C     0.37500   0.21770   0.84575   0.00000  Uiso   1.00
C2793  C     0.25000   0.14000   0.76075   0.00000  Uiso   1.00
C2794  C     0.25000   0.15730   0.77925   0.00000  Uiso   1.00
C2795  C     0.37500   0.01500   0.88575   0.00000  Uiso   1.00
C2796  C     0.37500   0.03230   0.90425   0.00000  Uiso   1.00
C2797  C     0.25000   0.23500   0.76075   0.00000  Uiso   1.00
C2798  C     0.25000   0.21770   0.77925   0.00000  Uiso   1.00
C2799  C     0.37500   0.11000   0.88575   0.00000  Uiso   1.00
C2800  C     0.37500   0.09270   0.90425   0.00000  Uiso   1.00
O2801  O     0.53900   0.04175   0.96043   0.00000  Uiso   1.00
C2802  C     0.70200   0.00905   0.99350   0.00000  Uiso   1.00
O2803  O     0.66400   0.16675   0.83543   0.00000  Uiso   1.00
C2804  C     0.57700   0.13405   0.86850   0.00000  Uiso   1.00
O2805  O     0.71100   0.08325   0.96043   0.00000  Uiso   1.00
C2806  C     0.54800   0.11595   0.99350   0.00000  Uiso   1.00
O2807  O     0.58600   0.20825   0.83543   0.00000  Uiso   1.00
C2808  C     0.67300   0.24095   0.86850   0.00000  Uiso   1.00
O2809  O     0.71100   0.16675   0.78957   0.00000  Uiso   1.00
C2810  C     0.54800   0.13405   0.75650   0.00000  Uiso   1.00
O2811  O     0.58600   0.04175   0.91458   0.00000  Uiso   1.00
C2812  C     0.67300   0.00905   0.88150   0.00000  Uiso   1.00
O2813  O     0.53900   0.20825   0.78957   0.00000  Uiso   1.00
C2814  C     0.70200   0.24095   0.75650   0.00000  Uiso   1.00
O2815  O     0.66400   0.08325   0.91458   0.00000  Uiso   1.00
C2816  C     0.57700   0.11595   0.88150   0.00000  Uiso   1.00
O2817  O     0.71100   0.20825   0.78957   0.00000  Uiso   1.00
C2818  C     0.54800   0.24095   0.75650   0.00000  Uiso   1.00
O2819  O     0.58600   0.08325   0.91458   0.00000  Uiso   1.00
C2820  C     0.67300   0.11595   0.88150   0.00000  Uiso   1.00
O2821  O     0.53900   0.16675   0.78957   0.00000  Uiso   1.00
C2822  C     0.70200   0.13405   0.75650   0.00000  Uiso   1.00
O2823  O     0.66400   0.04175   0.91458   0.00000  Uiso   1.00
C2824  C     0.57700   0.00905   0.88150   0.00000  Uiso   1.00
O2825  O     0.53900   0.08325   0.96043   0.00000  Uiso   1.00
C2826  C     0.70200   0.11595   0.99350   0.00000  Uiso   1.00
O2827  O     0.66400   0.20825   0.83543   0.00000  Uiso   1.00
C2828  C     0.57700   0.24095   0.86850   0.00000  Uiso   1.00
O2829  O     0.71100   0.04175   0.96043   0.00000  Uiso   1.00
C2830  C     0.54800   0.00905   0.99350   0.00000  Uiso   1.00
O2831  O     0.58600   0.16675   0.83543   0.00000  Uiso   1.00
C2832  C     0.67300   0.13405   0.86850   0.00000  Uiso   1.00
Al2833 Al    0.56250   0.06250   0.93750   0.00000  Uiso   1.00
Al2834 Al    0.68750   0.06250   0.93750   0.00000  Uiso   1.00
Al2835 Al    0.68750   0.18750   0.81250   0.00000  Uiso   1.00
Al2836 Al    0.56250   0.18750   0.81250   0.00000  Uiso   1.00
O2837  O     0.50000   0.06250   0.92325   0.00000  Uiso   1.00
O2838  O     0.62500   0.18750   0.79825   0.00000  Uiso   1.00
O2839  O     0.50000   0.18750   0.82675   0.00000  Uiso   1.00
O2840  O     0.62500   0.06250   0.95175   0.00000  Uiso   1.00
C2841  C     0.50000   0.01500   0.98925   0.00000  Uiso   1.00
C2842  C     0.50000   0.03230   0.97075   0.00000  Uiso   1.00
C2843  C     0.62500   0.14000   0.86425   0.00000  Uiso   1.00
C2844  C     0.62500   0.15730   0.84575   0.00000  Uiso   1.00
C2845  C     0.50000   0.11000   0.98925   0.00000  Uiso   1.00
C2846  C     0.50000   0.09270   0.97075   0.00000  Uiso   1.00
C2847  C     0.62500   0.23500   0.86425   0.00000  Uiso   1.00
C2848  C     0.62500   0.21770   0.84575   0.00000  Uiso   1.00
C2849  C     0.50000   0.14000   0.76075   0.00000  Uiso   1.00
C2850  C     0.50000   0.15730   0.77925   0.00000  Uiso   1.00
C2851  C     0.62500   0.01500   0.88575   0.00000  Uiso   1.00
C2852  C     0.62500   0.03230   0.90425   0.00000  Uiso   1.00
C2853  C     0.50000   0.23500   0.76075   0.00000  Uiso   1.00
C2854  C     0.50000   0.21770   0.77925   0.00000  Uiso   1.00
C2855  C     0.62500   0.11000   0.88575   0.00000  Uiso   1.00
C2856  C     0.62500   0.09270   0.90425   0.00000  Uiso   1.00
O2857  O     0.78900   0.04175   0.96043   0.00000  Uiso   1.00
C2858  C     0.95200   0.00905   0.99350   0.00000  Uiso   1.00
O2859  O     0.91400   0.16675   0.83543   0.00000  Uiso   1.00
C2860  C     0.82700   0.13405   0.86850   0.00000  Uiso   1.00
O2861  O     0.96100   0.08325   0.96043   0.00000  Uiso   1.00
C2862  C     0.79800   0.11595   0.99350   0.00000  Uiso   1.00
O2863  O     0.83600   0.20825   0.83543   0.00000  Uiso   1.00
C2864  C     0.92300   0.24095   0.86850   0.00000  Uiso   1.00
O2865  O     0.96100   0.16675   0.78957   0.00000  Uiso   1.00
C2866  C     0.79800   0.13405   0.75650   0.00000  Uiso   1.00
O2867  O     0.83600   0.04175   0.91458   0.00000  Uiso   1.00
C2868  C     0.92300   0.00905   0.88150   0.00000  Uiso   1.00
O2869  O     0.78900   0.20825   0.78957   0.00000  Uiso   1.00
C2870  C     0.95200   0.24095   0.75650   0.00000  Uiso   1.00
O2871  O     0.91400   0.08325   0.91458   0.00000  Uiso   1.00
C2872  C     0.82700   0.11595   0.88150   0.00000  Uiso   1.00
O2873  O     0.96100   0.20825   0.78957   0.00000  Uiso   1.00
C2874  C     0.79800   0.24095   0.75650   0.00000  Uiso   1.00
O2875  O     0.83600   0.08325   0.91458   0.00000  Uiso   1.00
C2876  C     0.92300   0.11595   0.88150   0.00000  Uiso   1.00
O2877  O     0.78900   0.16675   0.78957   0.00000  Uiso   1.00
C2878  C     0.95200   0.13405   0.75650   0.00000  Uiso   1.00
O2879  O     0.91400   0.04175   0.91458   0.00000  Uiso   1.00
C2880  C     0.82700   0.00905   0.88150   0.00000  Uiso   1.00
O2881  O     0.78900   0.08325   0.96043   0.00000  Uiso   1.00
C2882  C     0.95200   0.11595   0.99350   0.00000  Uiso   1.00
O2883  O     0.91400   0.20825   0.83543   0.00000  Uiso   1.00
C2884  C     0.82700   0.24095   0.86850   0.00000  Uiso   1.00
O2885  O     0.96100   0.04175   0.96043   0.00000  Uiso   1.00
C2886  C     0.79800   0.00905   0.99350   0.00000  Uiso   1.00
O2887  O     0.83600   0.16675   0.83543   0.00000  Uiso   1.00
C2888  C     0.92300   0.13405   0.86850   0.00000  Uiso   1.00
Al2889 Al    0.81250   0.06250   0.93750   0.00000  Uiso   1.00
Al2890 Al    0.93750   0.06250   0.93750   0.00000  Uiso   1.00
Al2891 Al    0.93750   0.18750   0.81250   0.00000  Uiso   1.00
Al2892 Al    0.81250   0.18750   0.81250   0.00000  Uiso   1.00
O2893  O     0.75000   0.06250   0.92325   0.00000  Uiso   1.00
O2894  O     0.87500   0.18750   0.79825   0.00000  Uiso   1.00
O2895  O     0.75000   0.18750   0.82675   0.00000  Uiso   1.00
O2896  O     0.87500   0.06250   0.95175   0.00000  Uiso   1.00
C2897  C     0.75000   0.01500   0.98925   0.00000  Uiso   1.00
C2898  C     0.75000   0.03230   0.97075   0.00000  Uiso   1.00
C2899  C     0.87500   0.14000   0.86425   0.00000  Uiso   1.00
C2900  C     0.87500   0.15730   0.84575   0.00000  Uiso   1.00
C2901  C     0.75000   0.11000   0.98925   0.00000  Uiso   1.00
C2902  C     0.75000   0.09270   0.97075   0.00000  Uiso   1.00
C2903  C     0.87500   0.23500   0.86425   0.00000  Uiso   1.00
C2904  C     0.87500   0.21770   0.84575   0.00000  Uiso   1.00
C2905  C     0.75000   0.14000   0.76075   0.00000  Uiso   1.00
C2906  C     0.75000   0.15730   0.77925   0.00000  Uiso   1.00
C2907  C     0.87500   0.01500   0.88575   0.00000  Uiso   1.00
C2908  C     0.87500   0.03230   0.90425   0.00000  Uiso   1.00
C2909  C     0.75000   0.23500   0.76075   0.00000  Uiso   1.00
C2910  C     0.75000   0.21770   0.77925   0.00000  Uiso   1.00
C2911  C     0.87500   0.11000   0.88575   0.00000  Uiso   1.00
C2912  C     0.87500   0.09270   0.90425   0.00000  Uiso   1.00
O2913  O     0.03900   0.29175   0.96043   0.00000  Uiso   1.00
C2914  C     0.20200   0.25905   0.99350   0.00000  Uiso   1.00
O2915  O     0.16400   0.41675   0.83543   0.00000  Uiso   1.00
C2916  C     0.07700   0.38405   0.86850   0.00000  Uiso   1.00
O2917  O     0.21100   0.33325   0.96043   0.00000  Uiso   1.00
C2918  C     0.04800   0.36595   0.99350   0.00000  Uiso   1.00
O2919  O     0.08600   0.45825   0.83543   0.00000  Uiso   1.00
C2920  C     0.17300   0.49095   0.86850   0.00000  Uiso   1.00
O2921  O     0.21100   0.41675   0.78957   0.00000  Uiso   1.00
C2922  C     0.04800   0.38405   0.75650   0.00000  Uiso   1.00
O2923  O     0.08600   0.29175   0.91458   0.00000  Uiso   1.00
C2924  C     0.17300   0.25905   0.88150   0.00000  Uiso   1.00
O2925  O     0.03900   0.45825   0.78957   0.00000  Uiso   1.00
C2926  C     0.20200   0.49095   0.75650   0.00000  Uiso   1.00
O2927  O     0.16400   0.33325   0.91458   0.00000  Uiso   1.00
C2928  C     0.07700   0.36595   0.88150   0.00000  Uiso   1.00
O2929  O     0.21100   0.45825   0.78957   0.00000  Uiso   1.00
C2930  C     0.04800   0.49095   0.75650   0.00000  Uiso   1.00
O2931  O     0.08600   0.33325   0.91458   0.00000  Uiso   1.00
C2932  C     0.17300   0.36595   0.88150   0.00000  Uiso   1.00
O2933  O     0.03900   0.41675   0.78957   0.00000  Uiso   1.00
C2934  C     0.20200   0.38405   0.75650   0.00000  Uiso   1.00
O2935  O     0.16400   0.29175   0.91458   0.00000  Uiso   1.00
C2936  C     0.07700   0.25905   0.88150   0.00000  Uiso   1.00
O2937  O     0.03900   0.33325   0.96043   0.00000  Uiso   1.00
C2938  C     0.20200   0.36595   0.99350   0.00000  Uiso   1.00
O2939  O     0.16400   0.45825   0.83543   0.00000  Uiso   1.00
C2940  C     0.07700   0.49095   0.86850   0.00000  Uiso   1.00
O2941  O     0.21100   0.29175   0.96043   0.00000  Uiso   1.00
C2942  C     0.04800   0.25905   0.99350   0.00000  Uiso   1.00
O2943  O     0.08600   0.41675   0.83543   0.00000  Uiso   1.00
C2944  C     0.17300   0.38405   0.86850   0.00000  Uiso   1.00
Al2945 Al    0.06250   0.31250   0.93750   0.00000  Uiso   1.00
Al2946 Al    0.18750   0.31250   0.93750   0.00000  Uiso   1.00
Al2947 Al    0.18750   0.43750   0.81250   0.00000  Uiso   1.00
Al2948 Al    0.06250   0.43750   0.81250   0.00000  Uiso   1.00
O2949  O     0.00000   0.31250   0.92325   0.00000  Uiso   1.00
O2950  O     0.12500   0.43750   0.79825   0.00000  Uiso   1.00
O2951  O     0.00000   0.43750   0.82675   0.00000  Uiso   1.00
O2952  O     0.12500   0.31250   0.95175   0.00000  Uiso   1.00
C2953  C     0.00000   0.26500   0.98925   0.00000  Uiso   1.00
C2954  C     0.00000   0.28230   0.97075   0.00000  Uiso   1.00
C2955  C     0.12500   0.39000   0.86425   0.00000  Uiso   1.00
C2956  C     0.12500   0.40730   0.84575   0.00000  Uiso   1.00
C2957  C     0.00000   0.36000   0.98925   0.00000  Uiso   1.00
C2958  C     0.00000   0.34270   0.97075   0.00000  Uiso   1.00
C2959  C     0.12500   0.48500   0.86425   0.00000  Uiso   1.00
C2960  C     0.12500   0.46770   0.84575   0.00000  Uiso   1.00
C2961  C     0.00000   0.39000   0.76075   0.00000  Uiso   1.00
C2962  C     0.00000   0.40730   0.77925   0.00000  Uiso   1.00
C2963  C     0.12500   0.26500   0.88575   0.00000  Uiso   1.00
C2964  C     0.12500   0.28230   0.90425   0.00000  Uiso   1.00
C2965  C     0.00000   0.48500   0.76075   0.00000  Uiso   1.00
C2966  C     0.00000   0.46770   0.77925   0.00000  Uiso   1.00
C2967  C     0.12500   0.36000   0.88575   0.00000  Uiso   1.00
C2968  C     0.12500   0.34270   0.90425   0.00000  Uiso   1.00
O2969  O     0.28900   0.29175   0.96043   0.00000  Uiso   1.00
C2970  C     0.45200   0.25905   0.99350   0.00000  Uiso   1.00
O2971  O     0.41400   0.41675   0.83543   0.00000  Uiso   1.00
C2972  C     0.32700   0.38405   0.86850   0.00000  Uiso   1.00
O2973  O     0.46100   0.33325   0.96043   0.00000  Uiso   1.00
C2974  C     0.29800   0.36595   0.99350   0.00000  Uiso   1.00
O2975  O     0.33600   0.45825   0.83543   0.00000  Uiso   1.00
C2976  C     0.42300   0.49095   0.86850   0.00000  Uiso   1.00
O2977  O     0.46100   0.41675   0.78957   0.00000  Uiso   1.00
C2978  C     0.29800   0.38405   0.75650   0.00000  Uiso   1.00
O2979  O     0.33600   0.29175   0.91458   0.00000  Uiso   1.00
C2980  C     0.42300   0.25905   0.88150   0.00000  Uiso   1.00
O2981  O     0.28900   0.45825   0.78957   0.00000  Uiso   1.00
C2982  C     0.45200   0.49095   0.75650   0.00000  Uiso   1.00
O2983  O     0.41400   0.33325   0.91458   0.00000  Uiso   1.00
C2984  C     0.32700   0.36595   0.88150   0.00000  Uiso   1.00
O2985  O     0.46100   0.45825   0.78957   0.00000  Uiso   1.00
C2986  C     0.29800   0.49095   0.75650   0.00000  Uiso   1.00
O2987  O     0.33600   0.33325   0.91458   0.00000  Uiso   1.00
C2988  C     0.42300   0.36595   0.88150   0.00000  Uiso   1.00
O2989  O     0.28900   0.41675   0.78957   0.00000  Uiso   1.00
C2990  C     0.45200   0.38405   0.75650   0.00000  Uiso   1.00
O2991  O     0.41400   0.29175   0.91458   0.00000  Uiso   1.00
C2992  C     0.32700   0.25905   0.88150   0.00000  Uiso   1.00
O2993  O     0.28900   0.33325   0.96043   0.00000  Uiso   1.00
C2994  C     0.45200   0.36595   0.99350   0.00000  Uiso   1.00
O2995  O     0.41400   0.45825   0.83543   0.00000  Uiso   1.00
C2996  C     0.32700   0.49095   0.86850   0.00000  Uiso   1.00
O2997  O     0.46100   0.29175   0.96043   0.00000  Uiso   1.00
C2998  C     0.29800   0.25905   0.99350   0.00000  Uiso   1.00
O2999  O     0.33600   0.41675   0.83543   0.00000  Uiso   1.00
C3000  C     0.42300   0.38405   0.86850   0.00000  Uiso   1.00
Al3001 Al    0.31250   0.31250   0.93750   0.00000  Uiso   1.00
Al3002 Al    0.43750   0.31250   0.93750   0.00000  Uiso   1.00
Al3003 Al    0.43750   0.43750   0.81250   0.00000  Uiso   1.00
Al3004 Al    0.31250   0.43750   0.81250   0.00000  Uiso   1.00
O3005  O     0.25000   0.31250   0.92325   0.00000  Uiso   1.00
O3006  O     0.37500   0.43750   0.79825   0.00000  Uiso   1.00
O3007  O     0.25000   0.43750   0.82675   0.00000  Uiso   1.00
O3008  O     0.37500   0.31250   0.95175   0.00000  Uiso   1.00
C3009  C     0.25000   0.26500   0.98925   0.00000  Uiso   1.00
C3010  C     0.25000   0.28230   0.97075   0.00000  Uiso   1.00
C3011  C     0.37500   0.39000   0.86425   0.00000  Uiso   1.00
C3012  C     0.37500   0.40730   0.84575   0.00000  Uiso   1.00
C3013  C     0.25000   0.36000   0.98925   0.00000  Uiso   1.00
C3014  C     0.25000   0.34270   0.97075   0.00000  Uiso   1.00
C3015  C     0.37500   0.48500   0.86425   0.00000  Uiso   1.00
C3016  C     0.37500   0.46770   0.84575   0.00000  Uiso   1.00
C3017  C     0.25000   0.39000   0.76075   0.00000  Uiso   1.00
C3018  C     0.25000   0.40730   0.77925   0.00000  Uiso   1.00
C3019  C     0.37500   0.26500   0.88575   0.00000  Uiso   1.00
C3020  C     0.37500   0.28230   0.90425   0.00000  Uiso   1.00
C3021  C     0.25000   0.48500   0.76075   0.00000  Uiso   1.00
C3022  C     0.25000   0.46770   0.77925   0.00000  Uiso   1.00
C3023  C     0.37500   0.36000   0.88575   0.00000  Uiso   1.00
C3024  C     0.37500   0.34270   0.90425   0.00000  Uiso   1.00
O3025  O     0.53900   0.29175   0.96043   0.00000  Uiso   1.00
C3026  C     0.70200   0.25905   0.99350   0.00000  Uiso   1.00
O3027  O     0.66400   0.41675   0.83543   0.00000  Uiso   1.00
C3028  C     0.57700   0.38405   0.86850   0.00000  Uiso   1.00
O3029  O     0.71100   0.33325   0.96043   0.00000  Uiso   1.00
C3030  C     0.54800   0.36595   0.99350   0.00000  Uiso   1.00
O3031  O     0.58600   0.45825   0.83543   0.00000  Uiso   1.00
C3032  C     0.67300   0.49095   0.86850   0.00000  Uiso   1.00
O3033  O     0.71100   0.41675   0.78957   0.00000  Uiso   1.00
C3034  C     0.54800   0.38405   0.75650   0.00000  Uiso   1.00
O3035  O     0.58600   0.29175   0.91458   0.00000  Uiso   1.00
C3036  C     0.67300   0.25905   0.88150   0.00000  Uiso   1.00
O3037  O     0.53900   0.45825   0.78957   0.00000  Uiso   1.00
C3038  C     0.70200   0.49095   0.75650   0.00000  Uiso   1.00
O3039  O     0.66400   0.33325   0.91458   0.00000  Uiso   1.00
C3040  C     0.57700   0.36595   0.88150   0.00000  Uiso   1.00
O3041  O     0.71100   0.45825   0.78957   0.00000  Uiso   1.00
C3042  C     0.54800   0.49095   0.75650   0.00000  Uiso   1.00
O3043  O     0.58600   0.33325   0.91458   0.00000  Uiso   1.00
C3044  C     0.67300   0.36595   0.88150   0.00000  Uiso   1.00
O3045  O     0.53900   0.41675   0.78957   0.00000  Uiso   1.00
C3046  C     0.70200   0.38405   0.75650   0.00000  Uiso   1.00
O3047  O     0.66400   0.29175   0.91458   0.00000  Uiso   1.00
C3048  C     0.57700   0.25905   0.88150   0.00000  Uiso   1.00
O3049  O     0.53900   0.33325   0.96043   0.00000  Uiso   1.00
C3050  C     0.70200   0.36595   0.99350   0.00000  Uiso   1.00
O3051  O     0.66400   0.45825   0.83543   0.00000  Uiso   1.00
C3052  C     0.57700   0.49095   0.86850   0.00000  Uiso   1.00
O3053  O     0.71100   0.29175   0.96043   0.00000  Uiso   1.00
C3054  C     0.54800   0.25905   0.99350   0.00000  Uiso   1.00
O3055  O     0.58600   0.41675   0.83543   0.00000  Uiso   1.00
C3056  C     0.67300   0.38405   0.86850   0.00000  Uiso   1.00
Al3057 Al    0.56250   0.31250   0.93750   0.00000  Uiso   1.00
Al3058 Al    0.68750   0.31250   0.93750   0.00000  Uiso   1.00
Al3059 Al    0.68750   0.43750   0.81250   0.00000  Uiso   1.00
Al3060 Al    0.56250   0.43750   0.81250   0.00000  Uiso   1.00
O3061  O     0.50000   0.31250   0.92325   0.00000  Uiso   1.00
O3062  O     0.62500   0.43750   0.79825   0.00000  Uiso   1.00
O3063  O     0.50000   0.43750   0.82675   0.00000  Uiso   1.00
O3064  O     0.62500   0.31250   0.95175   0.00000  Uiso   1.00
C3065  C     0.50000   0.26500   0.98925   0.00000  Uiso   1.00
C3066  C     0.50000   0.28230   0.97075   0.00000  Uiso   1.00
C3067  C     0.62500   0.39000   0.86425   0.00000  Uiso   1.00
C3068  C     0.62500   0.40730   0.84575   0.00000  Uiso   1.00
C3069  C     0.50000   0.36000   0.98925   0.00000  Uiso   1.00
C3070  C     0.50000   0.34270   0.97075   0.00000  Uiso   1.00
C3071  C     0.62500   0.48500   0.86425   0.00000  Uiso   1.00
C3072  C     0.62500   0.46770   0.84575   0.00000  Uiso   1.00
C3073  C     0.50000   0.39000   0.76075   0.00000  Uiso   1.00
C3074  C     0.50000   0.40730   0.77925   0.00000  Uiso   1.00
C3075  C     0.62500   0.26500   0.88575   0.00000  Uiso   1.00
C3076  C     0.62500   0.28230   0.90425   0.00000  Uiso   1.00
C3077  C     0.50000   0.48500   0.76075   0.00000  Uiso   1.00
C3078  C     0.50000   0.46770   0.77925   0.00000  Uiso   1.00
C3079  C     0.62500   0.36000   0.88575   0.00000  Uiso   1.00
C3080  C     0.62500   0.34270   0.90425   0.00000  Uiso   1.00
O3081  O     0.78900   0.29175   0.96043   0.00000  Uiso   1.00
C3082  C     0.95200   0.25905   0.99350   0.00000  Uiso   1.00
O3083  O     0.91400   0.41675   0.83543   0.00000  Uiso   1.00
C3084  C     0.82700   0.38405   0.86850   0.00000  Uiso   1.00
O3085  O     0.96100   0.33325   0.96043   0.00000  Uiso   1.00
C3086  C     0.79800   0.36595   0.99350   0.00000  Uiso   1.00
O3087  O     0.83600   0.45825   0.83543   0.00000  Uiso   1.00
C3088  C     0.92300   0.49095   0.86850   0.00000  Uiso   1.00
O3089  O     0.96100   0.41675   0.78957   0.00000  Uiso   1.00
C3090  C     0.79800   0.38405   0.75650   0.00000  Uiso   1.00
O3091  O     0.83600   0.29175   0.91458   0.00000  Uiso   1.00
C3092  C     0.92300   0.25905   0.88150   0.00000  Uiso   1.00
O3093  O     0.78900   0.45825   0.78957   0.00000  Uiso   1.00
C3094  C     0.95200   0.49095   0.75650   0.00000  Uiso   1.00
O3095  O     0.91400   0.33325   0.91458   0.00000  Uiso   1.00
C3096  C     0.82700   0.36595   0.88150   0.00000  Uiso   1.00
O3097  O     0.96100   0.45825   0.78957   0.00000  Uiso   1.00
C3098  C     0.79800   0.49095   0.75650   0.00000  Uiso   1.00
O3099  O     0.83600   0.33325   0.91458   0.00000  Uiso   1.00
C3100  C     0.92300   0.36595   0.88150   0.00000  Uiso   1.00
O3101  O     0.78900   0.41675   0.78957   0.00000  Uiso   1.00
C3102  C     0.95200   0.38405   0.75650   0.00000  Uiso   1.00
O3103  O     0.91400   0.29175   0.91458   0.00000  Uiso   1.00
C3104  C     0.82700   0.25905   0.88150   0.00000  Uiso   1.00
O3105  O     0.78900   0.33325   0.96043   0.00000  Uiso   1.00
C3106  C     0.95200   0.36595   0.99350   0.00000  Uiso   1.00
O3107  O     0.91400   0.45825   0.83543   0.00000  Uiso   1.00
C3108  C     0.82700   0.49095   0.86850   0.00000  Uiso   1.00
O3109  O     0.96100   0.29175   0.96043   0.00000  Uiso   1.00
C3110  C     0.79800   0.25905   0.99350   0.00000  Uiso   1.00
O3111  O     0.83600   0.41675   0.83543   0.00000  Uiso   1.00
C3112  C     0.92300   0.38405   0.86850   0.00000  Uiso   1.00
Al3113 Al    0.81250   0.31250   0.93750   0.00000  Uiso   1.00
Al3114 Al    0.93750   0.31250   0.93750   0.00000  Uiso   1.00
Al3115 Al    0.93750   0.43750   0.81250   0.00000  Uiso   1.00
Al3116 Al    0.81250   0.43750   0.81250   0.00000  Uiso   1.00
O3117  O     0.75000   0.31250   0.92325   0.00000  Uiso   1.00
O3118  O     0.87500   0.43750   0.79825   0.00000  Uiso   1.00
O3119  O     0.75000   0.43750   0.82675   0.00000  Uiso   1.00
O3120  O     0.87500   0.31250   0.95175   0.00000  Uiso   1.00
C3121  C     0.75000   0.26500   0.98925   0.00000  Uiso   1.00
C3122  C     0.75000   0.28230   0.97075   0.00000  Uiso   1.00
C3123  C     0.87500   0.39000   0.86425   0.00000  Uiso   1.00
C3124  C     0.87500   0.40730   0.84575   0.00000  Uiso   1.00
C3125  C     0.75000   0.36000   0.98925   0.00000  Uiso   1.00
C3126  C     0.75000   0.34270   0.97075   0.00000  Uiso   1.00
C3127  C     0.87500   0.48500   0.86425   0.00000  Uiso   1.00
C3128  C     0.87500   0.46770   0.84575   0.00000  Uiso   1.00
C3129  C     0.75000   0.39000   0.76075   0.00000  Uiso   1.00
C3130  C     0.75000   0.40730   0.77925   0.00000  Uiso   1.00
C3131  C     0.87500   0.26500   0.88575   0.00000  Uiso   1.00
C3132  C     0.87500   0.28230   0.90425   0.00000  Uiso   1.00
C3133  C     0.75000   0.48500   0.76075   0.00000  Uiso   1.00
C3134  C     0.75000   0.46770   0.77925   0.00000  Uiso   1.00
C3135  C     0.87500   0.36000   0.88575   0.00000  Uiso   1.00
C3136  C     0.87500   0.34270   0.90425   0.00000  Uiso   1.00
O3137  O     0.03900   0.54175   0.96043   0.00000  Uiso   1.00
C3138  C     0.20200   0.50905   0.99350   0.00000  Uiso   1.00
O3139  O     0.16400   0.66675   0.83543   0.00000  Uiso   1.00
C3140  C     0.07700   0.63405   0.86850   0.00000  Uiso   1.00
O3141  O     0.21100   0.58325   0.96043   0.00000  Uiso   1.00
C3142  C     0.04800   0.61595   0.99350   0.00000  Uiso   1.00
O3143  O     0.08600   0.70825   0.83543   0.00000  Uiso   1.00
C3144  C     0.17300   0.74095   0.86850   0.00000  Uiso   1.00
O3145  O     0.21100   0.66675   0.78957   0.00000  Uiso   1.00
C3146  C     0.04800   0.63405   0.75650   0.00000  Uiso   1.00
O3147  O     0.08600   0.54175   0.91458   0.00000  Uiso   1.00
C3148  C     0.17300   0.50905   0.88150   0.00000  Uiso   1.00
O3149  O     0.03900   0.70825   0.78957   0.00000  Uiso   1.00
C3150  C     0.20200   0.74095   0.75650   0.00000  Uiso   1.00
O3151  O     0.16400   0.58325   0.91458   0.00000  Uiso   1.00
C3152  C     0.07700   0.61595   0.88150   0.00000  Uiso   1.00
O3153  O     0.21100   0.70825   0.78957   0.00000  Uiso   1.00
C3154  C     0.04800   0.74095   0.75650   0.00000  Uiso   1.00
O3155  O     0.08600   0.58325   0.91458   0.00000  Uiso   1.00
C3156  C     0.17300   0.61595   0.88150   0.00000  Uiso   1.00
O3157  O     0.03900   0.66675   0.78957   0.00000  Uiso   1.00
C3158  C     0.20200   0.63405   0.75650   0.00000  Uiso   1.00
O3159  O     0.16400   0.54175   0.91458   0.00000  Uiso   1.00
C3160  C     0.07700   0.50905   0.88150   0.00000  Uiso   1.00
O3161  O     0.03900   0.58325   0.96043   0.00000  Uiso   1.00
C3162  C     0.20200   0.61595   0.99350   0.00000  Uiso   1.00
O3163  O     0.16400   0.70825   0.83543   0.00000  Uiso   1.00
C3164  C     0.07700   0.74095   0.86850   0.00000  Uiso   1.00
O3165  O     0.21100   0.54175   0.96043   0.00000  Uiso   1.00
C3166  C     0.04800   0.50905   0.99350   0.00000  Uiso   1.00
O3167  O     0.08600   0.66675   0.83543   0.00000  Uiso   1.00
C3168  C     0.17300   0.63405   0.86850   0.00000  Uiso   1.00
Al3169 Al    0.06250   0.56250   0.93750   0.00000  Uiso   1.00
Al3170 Al    0.18750   0.56250   0.93750   0.00000  Uiso   1.00
Al3171 Al    0.18750   0.68750   0.81250   0.00000  Uiso   1.00
Al3172 Al    0.06250   0.68750   0.81250   0.00000  Uiso   1.00
O3173  O     0.00000   0.56250   0.92325   0.00000  Uiso   1.00
O3174  O     0.12500   0.68750   0.79825   0.00000  Uiso   1.00
O3175  O     0.00000   0.68750   0.82675   0.00000  Uiso   1.00
O3176  O     0.12500   0.56250   0.95175   0.00000  Uiso   1.00
C3177  C     0.00000   0.51500   0.98925   0.00000  Uiso   1.00
C3178  C     0.00000   0.53230   0.97075   0.00000  Uiso   1.00
C3179  C     0.12500   0.64000   0.86425   0.00000  Uiso   1.00
C3180  C     0.12500   0.65730   0.84575   0.00000  Uiso   1.00
C3181  C     0.00000   0.61000   0.98925   0.00000  Uiso   1.00
C3182  C     0.00000   0.59270   0.97075   0.00000  Uiso   1.00
C3183  C     0.12500   0.73500   0.86425   0.00000  Uiso   1.00
C3184  C     0.12500   0.71770   0.84575   0.00000  Uiso   1.00
C3185  C     0.00000   0.64000   0.76075   0.00000  Uiso   1.00
C3186  C     0.00000   0.65730   0.77925   0.00000  Uiso   1.00
C3187  C     0.12500   0.51500   0.88575   0.00000  Uiso   1.00
C3188  C     0.12500   0.53230   0.90425   0.00000  Uiso   1.00
C3189  C     0.00000   0.73500   0.76075   0.00000  Uiso   1.00
C3190  C     0.00000   0.71770   0.77925   0.00000  Uiso   1.00
C3191  C     0.12500   0.61000   0.88575   0.00000  Uiso   1.00
C3192  C     0.12500   0.59270   0.90425   0.00000  Uiso   1.00
O3193  O     0.28900   0.54175   0.96043   0.00000  Uiso   1.00
C3194  C     0.45200   0.50905   0.99350   0.00000  Uiso   1.00
O3195  O     0.41400   0.66675   0.83543   0.00000  Uiso   1.00
C3196  C     0.32700   0.63405   0.86850   0.00000  Uiso   1.00
O3197  O     0.46100   0.58325   0.96043   0.00000  Uiso   1.00
C3198  C     0.29800   0.61595   0.99350   0.00000  Uiso   1.00
O3199  O     0.33600   0.70825   0.83543   0.00000  Uiso   1.00
C3200  C     0.42300   0.74095   0.86850   0.00000  Uiso   1.00
O3201  O     0.46100   0.66675   0.78957   0.00000  Uiso   1.00
C3202  C     0.29800   0.63405   0.75650   0.00000  Uiso   1.00
O3203  O     0.33600   0.54175   0.91458   0.00000  Uiso   1.00
C3204  C     0.42300   0.50905   0.88150   0.00000  Uiso   1.00
O3205  O     0.28900   0.70825   0.78957   0.00000  Uiso   1.00
C3206  C     0.45200   0.74095   0.75650   0.00000  Uiso   1.00
O3207  O     0.41400   0.58325   0.91458   0.00000  Uiso   1.00
C3208  C     0.32700   0.61595   0.88150   0.00000  Uiso   1.00
O3209  O     0.46100   0.70825   0.78957   0.00000  Uiso   1.00
C3210  C     0.29800   0.74095   0.75650   0.00000  Uiso   1.00
O3211  O     0.33600   0.58325   0.91458   0.00000  Uiso   1.00
C3212  C     0.42300   0.61595   0.88150   0.00000  Uiso   1.00
O3213  O     0.28900   0.66675   0.78957   0.00000  Uiso   1.00
C3214  C     0.45200   0.63405   0.75650   0.00000  Uiso   1.00
O3215  O     0.41400   0.54175   0.91458   0.00000  Uiso   1.00
C3216  C     0.32700   0.50905   0.88150   0.00000  Uiso   1.00
O3217  O     0.28900   0.58325   0.96043   0.00000  Uiso   1.00
C3218  C     0.45200   0.61595   0.99350   0.00000  Uiso   1.00
O3219  O     0.41400   0.70825   0.83543   0.00000  Uiso   1.00
C3220  C     0.32700   0.74095   0.86850   0.00000  Uiso   1.00
O3221  O     0.46100   0.54175   0.96043   0.00000  Uiso   1.00
C3222  C     0.29800   0.50905   0.99350   0.00000  Uiso   1.00
O3223  O     0.33600   0.66675   0.83543   0.00000  Uiso   1.00
C3224  C     0.42300   0.63405   0.86850   0.00000  Uiso   1.00
Al3225 Al    0.31250   0.56250   0.93750   0.00000  Uiso   1.00
Al3226 Al    0.43750   0.56250   0.93750   0.00000  Uiso   1.00
Al3227 Al    0.43750   0.68750   0.81250   0.00000  Uiso   1.00
Al3228 Al    0.31250   0.68750   0.81250   0.00000  Uiso   1.00
O3229  O     0.25000   0.56250   0.92325   0.00000  Uiso   1.00
O3230  O     0.37500   0.68750   0.79825   0.00000  Uiso   1.00
O3231  O     0.25000   0.68750   0.82675   0.00000  Uiso   1.00
O3232  O     0.37500   0.56250   0.95175   0.00000  Uiso   1.00
C3233  C     0.25000   0.51500   0.98925   0.00000  Uiso   1.00
C3234  C     0.25000   0.53230   0.97075   0.00000  Uiso   1.00
C3235  C     0.37500   0.64000   0.86425   0.00000  Uiso   1.00
C3236  C     0.37500   0.65730   0.84575   0.00000  Uiso   1.00
C3237  C     0.25000   0.61000   0.98925   0.00000  Uiso   1.00
C3238  C     0.25000   0.59270   0.97075   0.00000  Uiso   1.00
C3239  C     0.37500   0.73500   0.86425   0.00000  Uiso   1.00
C3240  C     0.37500   0.71770   0.84575   0.00000  Uiso   1.00
C3241  C     0.25000   0.64000   0.76075   0.00000  Uiso   1.00
C3242  C     0.25000   0.65730   0.77925   0.00000  Uiso   1.00
C3243  C     0.37500   0.51500   0.88575   0.00000  Uiso   1.00
C3244  C     0.37500   0.53230   0.90425   0.00000  Uiso   1.00
C3245  C     0.25000   0.73500   0.76075   0.00000  Uiso   1.00
C3246  C     0.25000   0.71770   0.77925   0.00000  Uiso   1.00
C3247  C     0.37500   0.61000   0.88575   0.00000  Uiso   1.00
C3248  C     0.37500   0.59270   0.90425   0.00000  Uiso   1.00
O3249  O     0.53900   0.54175   0.96043   0.00000  Uiso   1.00
C3250  C     0.70200   0.50905   0.99350   0.00000  Uiso   1.00
O3251  O     0.66400   0.66675   0.83543   0.00000  Uiso   1.00
C3252  C     0.57700   0.63405   0.86850   0.00000  Uiso   1.00
O3253  O     0.71100   0.58325   0.96043   0.00000  Uiso   1.00
C3254  C     0.54800   0.61595   0.99350   0.00000  Uiso   1.00
O3255  O     0.58600   0.70825   0.83543   0.00000  Uiso   1.00
C3256  C     0.67300   0.74095   0.86850   0.00000  Uiso   1.00
O3257  O     0.71100   0.66675   0.78957   0.00000  Uiso   1.00
C3258  C     0.54800   0.63405   0.75650   0.00000  Uiso   1.00
O3259  O     0.58600   0.54175   0.91458   0.00000  Uiso   1.00
C3260  C     0.67300   0.50905   0.88150   0.00000  Uiso   1.00
O3261  O     0.53900   0.70825   0.78957   0.00000  Uiso   1.00
C3262  C     0.70200   0.74095   0.75650   0.00000  Uiso   1.00
O3263  O     0.66400   0.58325   0.91458   0.00000  Uiso   1.00
C3264  C     0.57700   0.61595   0.88150   0.00000  Uiso   1.00
O3265  O     0.71100   0.70825   0.78957   0.00000  Uiso   1.00
C3266  C     0.54800   0.74095   0.75650   0.00000  Uiso   1.00
O3267  O     0.58600   0.58325   0.91458   0.00000  Uiso   1.00
C3268  C     0.67300   0.61595   0.88150   0.00000  Uiso   1.00
O3269  O     0.53900   0.66675   0.78957   0.00000  Uiso   1.00
C3270  C     0.70200   0.63405   0.75650   0.00000  Uiso   1.00
O3271  O     0.66400   0.54175   0.91458   0.00000  Uiso   1.00
C3272  C     0.57700   0.50905   0.88150   0.00000  Uiso   1.00
O3273  O     0.53900   0.58325   0.96043   0.00000  Uiso   1.00
C3274  C     0.70200   0.61595   0.99350   0.00000  Uiso   1.00
O3275  O     0.66400   0.70825   0.83543   0.00000  Uiso   1.00
C3276  C     0.57700   0.74095   0.86850   0.00000  Uiso   1.00
O3277  O     0.71100   0.54175   0.96043   0.00000  Uiso   1.00
C3278  C     0.54800   0.50905   0.99350   0.00000  Uiso   1.00
O3279  O     0.58600   0.66675   0.83543   0.00000  Uiso   1.00
C3280  C     0.67300   0.63405   0.86850   0.00000  Uiso   1.00
Al3281 Al    0.56250   0.56250   0.93750   0.00000  Uiso   1.00
Al3282 Al    0.68750   0.56250   0.93750   0.00000  Uiso   1.00
Al3283 Al    0.68750   0.68750   0.81250   0.00000  Uiso   1.00
Al3284 Al    0.56250   0.68750   0.81250   0.00000  Uiso   1.00
O3285  O     0.50000   0.56250   0.92325   0.00000  Uiso   1.00
O3286  O     0.62500   0.68750   0.79825   0.00000  Uiso   1.00
O3287  O     0.50000   0.68750   0.82675   0.00000  Uiso   1.00
O3288  O     0.62500   0.56250   0.95175   0.00000  Uiso   1.00
C3289  C     0.50000   0.51500   0.98925   0.00000  Uiso   1.00
C3290  C     0.50000   0.53230   0.97075   0.00000  Uiso   1.00
C3291  C     0.62500   0.64000   0.86425   0.00000  Uiso   1.00
C3292  C     0.62500   0.65730   0.84575   0.00000  Uiso   1.00
C3293  C     0.50000   0.61000   0.98925   0.00000  Uiso   1.00
C3294  C     0.50000   0.59270   0.97075   0.00000  Uiso   1.00
C3295  C     0.62500   0.73500   0.86425   0.00000  Uiso   1.00
C3296  C     0.62500   0.71770   0.84575   0.00000  Uiso   1.00
C3297  C     0.50000   0.64000   0.76075   0.00000  Uiso   1.00
C3298  C     0.50000   0.65730   0.77925   0.00000  Uiso   1.00
C3299  C     0.62500   0.51500   0.88575   0.00000  Uiso   1.00
C3300  C     0.62500   0.53230   0.90425   0.00000  Uiso   1.00
C3301  C     0.50000   0.73500   0.76075   0.00000  Uiso   1.00
C3302  C     0.50000   0.71770   0.77925   0.00000  Uiso   1.00
C3303  C     0.62500   0.61000   0.88575   0.00000  Uiso   1.00
C3304  C     0.62500   0.59270   0.90425   0.00000  Uiso   1.00
O3305  O     0.78900   0.54175   0.96043   0.00000  Uiso   1.00
C3306  C     0.95200   0.50905   0.99350   0.00000  Uiso   1.00
O3307  O     0.91400   0.66675   0.83543   0.00000  Uiso   1.00
C3308  C     0.82700   0.63405   0.86850   0.00000  Uiso   1.00
O3309  O     0.96100   0.58325   0.96043   0.00000  Uiso   1.00
C3310  C     0.79800   0.61595   0.99350   0.00000  Uiso   1.00
O3311  O     0.83600   0.70825   0.83543   0.00000  Uiso   1.00
C3312  C     0.92300   0.74095   0.86850   0.00000  Uiso   1.00
O3313  O     0.96100   0.66675   0.78957   0.00000  Uiso   1.00
C3314  C     0.79800   0.63405   0.75650   0.00000  Uiso   1.00
O3315  O     0.83600   0.54175   0.91458   0.00000  Uiso   1.00
C3316  C     0.92300   0.50905   0.88150   0.00000  Uiso   1.00
O3317  O     0.78900   0.70825   0.78957   0.00000  Uiso   1.00
C3318  C     0.95200   0.74095   0.75650   0.00000  Uiso   1.00
O3319  O     0.91400   0.58325   0.91458   0.00000  Uiso   1.00
C3320  C     0.82700   0.61595   0.88150   0.00000  Uiso   1.00
O3321  O     0.96100   0.70825   0.78957   0.00000  Uiso   1.00
C3322  C     0.79800   0.74095   0.75650   0.00000  Uiso   1.00
O3323  O     0.83600   0.58325   0.91458   0.00000  Uiso   1.00
C3324  C     0.92300   0.61595   0.88150   0.00000  Uiso   1.00
O3325  O     0.78900   0.66675   0.78957   0.00000  Uiso   1.00
C3326  C     0.95200   0.63405   0.75650   0.00000  Uiso   1.00
O3327  O     0.91400   0.54175   0.91458   0.00000  Uiso   1.00
C3328  C     0.82700   0.50905   0.88150   0.00000  Uiso   1.00
O3329  O     0.78900   0.58325   0.96043   0.00000  Uiso   1.00
C3330  C     0.95200   0.61595   0.99350   0.00000  Uiso   1.00
O3331  O     0.91400   0.70825   0.83543   0.00000  Uiso   1.00
C3332  C     0.82700   0.74095   0.86850   0.00000  Uiso   1.00
O3333  O     0.96100   0.54175   0.96043   0.00000  Uiso   1.00
C3334  C     0.79800   0.50905   0.99350   0.00000  Uiso   1.00
O3335  O     0.83600   0.66675   0.83543   0.00000  Uiso   1.00
C3336  C     0.92300   0.63405   0.86850   0.00000  Uiso   1.00
Al3337 Al    0.81250   0.56250   0.93750   0.00000  Uiso   1.00
Al3338 Al    0.93750   0.56250   0.93750   0.00000  Uiso   1.00
Al3339 Al    0.93750   0.68750   0.81250   0.00000  Uiso   1.00
Al3340 Al    0.81250   0.68750   0.81250   0.00000  Uiso   1.00
O3341  O     0.75000   0.56250   0.92325   0.00000  Uiso   1.00
O3342  O     0.87500   0.68750   0.79825   0.00000  Uiso   1.00
O3343  O     0.75000   0.68750   0.82675   0.00000  Uiso   1.00
O3344  O     0.87500   0.56250   0.95175   0.00000  Uiso   1.00
C3345  C     0.75000   0.51500   0.98925   0.00000  Uiso   1.00
C3346  C     0.75000   0.53230   0.97075   0.00000  Uiso   1.00
C3347  C     0.87500   0.64000   0.86425   0.00000  Uiso   1.00
C3348  C     0.87500   0.65730   0.84575   0.00000  Uiso   1.00
C3349  C     0.75000   0.61000   0.98925   0.00000  Uiso   1.00
C3350  C     0.75000   0.59270   0.97075   0.00000  Uiso   1.00
C3351  C     0.87500   0.73500   0.86425   0.00000  Uiso   1.00
C3352  C     0.87500   0.71770   0.84575   0.00000  Uiso   1.00
C3353  C     0.75000   0.64000   0.76075   0.00000  Uiso   1.00
C3354  C     0.75000   0.65730   0.77925   0.00000  Uiso   1.00
C3355  C     0.87500   0.51500   0.88575   0.00000  Uiso   1.00
C3356  C     0.87500   0.53230   0.90425   0.00000  Uiso   1.00
C3357  C     0.75000   0.73500   0.76075   0.00000  Uiso   1.00
C3358  C     0.75000   0.71770   0.77925   0.00000  Uiso   1.00
C3359  C     0.87500   0.61000   0.88575   0.00000  Uiso   1.00
C3360  C     0.87500   0.59270   0.90425   0.00000  Uiso   1.00
O3361  O     0.03900   0.79175   0.96043   0.00000  Uiso   1.00
C3362  C     0.20200   0.75905   0.99350   0.00000  Uiso   1.00
O3363  O     0.16400   0.91675   0.83543   0.00000  Uiso   1.00
C3364  C     0.07700   0.88405   0.86850   0.00000  Uiso   1.00
O3365  O     0.21100   0.83325   0.96043   0.00000  Uiso   1.00
C3366  C     0.04800   0.86595   0.99350   0.00000  Uiso   1.00
O3367  O     0.08600   0.95825   0.83543   0.00000  Uiso   1.00
C3368  C     0.17300   0.99095   0.86850   0.00000  Uiso   1.00
O3369  O     0.21100   0.91675   0.78957   0.00000  Uiso   1.00
C3370  C     0.04800   0.88405   0.75650   0.00000  Uiso   1.00
O3371  O     0.08600   0.79175   0.91458   0.00000  Uiso   1.00
C3372  C     0.17300   0.75905   0.88150   0.00000  Uiso   1.00
O3373  O     0.03900   0.95825   0.78957   0.00000  Uiso   1.00
C3374  C     0.20200   0.99095   0.75650   0.00000  Uiso   1.00
O3375  O     0.16400   0.83325   0.91458   0.00000  Uiso   1.00
C3376  C     0.07700   0.86595   0.88150   0.00000  Uiso   1.00
O3377  O     0.21100   0.95825   0.78957   0.00000  Uiso   1.00
C3378  C     0.04800   0.99095   0.75650   0.00000  Uiso   1.00
O3379  O     0.08600   0.83325   0.91458   0.00000  Uiso   1.00
C3380  C     0.17300   0.86595   0.88150   0.00000  Uiso   1.00
O3381  O     0.03900   0.91675   0.78957   0.00000  Uiso   1.00
C3382  C     0.20200   0.88405   0.75650   0.00000  Uiso   1.00
O3383  O     0.16400   0.79175   0.91458   0.00000  Uiso   1.00
C3384  C     0.07700   0.75905   0.88150   0.00000  Uiso   1.00
O3385  O     0.03900   0.83325   0.96043   0.00000  Uiso   1.00
C3386  C     0.20200   0.86595   0.99350   0.00000  Uiso   1.00
O3387  O     0.16400   0.95825   0.83543   0.00000  Uiso   1.00
C3388  C     0.07700   0.99095   0.86850   0.00000  Uiso   1.00
O3389  O     0.21100   0.79175   0.96043   0.00000  Uiso   1.00
C3390  C     0.04800   0.75905   0.99350   0.00000  Uiso   1.00
O3391  O     0.08600   0.91675   0.83543   0.00000  Uiso   1.00
C3392  C     0.17300   0.88405   0.86850   0.00000  Uiso   1.00
Al3393 Al    0.06250   0.81250   0.93750   0.00000  Uiso   1.00
Al3394 Al    0.18750   0.81250   0.93750   0.00000  Uiso   1.00
Al3395 Al    0.18750   0.93750   0.81250   0.00000  Uiso   1.00
Al3396 Al    0.06250   0.93750   0.81250   0.00000  Uiso   1.00
O3397  O     0.00000   0.81250   0.92325   0.00000  Uiso   1.00
O3398  O     0.12500   0.93750   0.79825   0.00000  Uiso   1.00
O3399  O     0.00000   0.93750   0.82675   0.00000  Uiso   1.00
O3400  O     0.12500   0.81250   0.95175   0.00000  Uiso   1.00
C3401  C     0.00000   0.76500   0.98925   0.00000  Uiso   1.00
C3402  C     0.00000   0.78230   0.97075   0.00000  Uiso   1.00
C3403  C     0.12500   0.89000   0.86425   0.00000  Uiso   1.00
C3404  C     0.12500   0.90730   0.84575   0.00000  Uiso   1.00
C3405  C     0.00000   0.86000   0.98925   0.00000  Uiso   1.00
C3406  C     0.00000   0.84270   0.97075   0.00000  Uiso   1.00
C3407  C     0.12500   0.98500   0.86425   0.00000  Uiso   1.00
C3408  C     0.12500   0.96770   0.84575   0.00000  Uiso   1.00
C3409  C     0.00000   0.89000   0.76075   0.00000  Uiso   1.00
C3410  C     0.00000   0.90730   0.77925   0.00000  Uiso   1.00
C3411  C     0.12500   0.76500   0.88575   0.00000  Uiso   1.00
C3412  C     0.12500   0.78230   0.90425   0.00000  Uiso   1.00
C3413  C     0.00000   0.98500   0.76075   0.00000  Uiso   1.00
C3414  C     0.00000   0.96770   0.77925   0.00000  Uiso   1.00
C3415  C     0.12500   0.86000   0.88575   0.00000  Uiso   1.00
C3416  C     0.12500   0.84270   0.90425   0.00000  Uiso   1.00
O3417  O     0.28900   0.79175   0.96043   0.00000  Uiso   1.00
C3418  C     0.45200   0.75905   0.99350   0.00000  Uiso   1.00
O3419  O     0.41400   0.91675   0.83543   0.00000  Uiso   1.00
C3420  C     0.32700   0.88405   0.86850   0.00000  Uiso   1.00
O3421  O     0.46100   0.83325   0.96043   0.00000  Uiso   1.00
C3422  C     0.29800   0.86595   0.99350   0.00000  Uiso   1.00
O3423  O     0.33600   0.95825   0.83543   0.00000  Uiso   1.00
C3424  C     0.42300   0.99095   0.86850   0.00000  Uiso   1.00
O3425  O     0.46100   0.91675   0.78957   0.00000  Uiso   1.00
C3426  C     0.29800   0.88405   0.75650   0.00000  Uiso   1.00
O3427  O     0.33600   0.79175   0.91458   0.00000  Uiso   1.00
C3428  C     0.42300   0.75905   0.88150   0.00000  Uiso   1.00
O3429  O     0.28900   0.95825   0.78957   0.00000  Uiso   1.00
C3430  C     0.45200   0.99095   0.75650   0.00000  Uiso   1.00
O3431  O     0.41400   0.83325   0.91458   0.00000  Uiso   1.00
C3432  C     0.32700   0.86595   0.88150   0.00000  Uiso   1.00
O3433  O     0.46100   0.95825   0.78957   0.00000  Uiso   1.00
C3434  C     0.29800   0.99095   0.75650   0.00000  Uiso   1.00
O3435  O     0.33600   0.83325   0.91458   0.00000  Uiso   1.00
C3436  C     0.42300   0.86595   0.88150   0.00000  Uiso   1.00
O3437  O     0.28900   0.91675   0.78957   0.00000  Uiso   1.00
C3438  C     0.45200   0.88405   0.75650   0.00000  Uiso   1.00
O3439  O     0.41400   0.79175   0.91458   0.00000  Uiso   1.00
C3440  C     0.32700   0.75905   0.88150   0.00000  Uiso   1.00
O3441  O     0.28900   0.83325   0.96043   0.00000  Uiso   1.00
C3442  C     0.45200   0.86595   0.99350   0.00000  Uiso   1.00
O3443  O     0.41400   0.95825   0.83543   0.00000  Uiso   1.00
C3444  C     0.32700   0.99095   0.86850   0.00000  Uiso   1.00
O3445  O     0.46100   0.79175   0.96043   0.00000  Uiso   1.00
C3446  C     0.29800   0.75905   0.99350   0.00000  Uiso   1.00
O3447  O     0.33600   0.91675   0.83543   0.00000  Uiso   1.00
C3448  C     0.42300   0.88405   0.86850   0.00000  Uiso   1.00
Al3449 Al    0.31250   0.81250   0.93750   0.00000  Uiso   1.00
Al3450 Al    0.43750   0.81250   0.93750   0.00000  Uiso   1.00
Al3451 Al    0.43750   0.93750   0.81250   0.00000  Uiso   1.00
Al3452 Al    0.31250   0.93750   0.81250   0.00000  Uiso   1.00
O3453  O     0.25000   0.81250   0.92325   0.00000  Uiso   1.00
O3454  O     0.37500   0.93750   0.79825   0.00000  Uiso   1.00
O3455  O     0.25000   0.93750   0.82675   0.00000  Uiso   1.00
O3456  O     0.37500   0.81250   0.95175   0.00000  Uiso   1.00
C3457  C     0.25000   0.76500   0.98925   0.00000  Uiso   1.00
C3458  C     0.25000   0.78230   0.97075   0.00000  Uiso   1.00
C3459  C     0.37500   0.89000   0.86425   0.00000  Uiso   1.00
C3460  C     0.37500   0.90730   0.84575   0.00000  Uiso   1.00
C3461  C     0.25000   0.86000   0.98925   0.00000  Uiso   1.00
C3462  C     0.25000   0.84270   0.97075   0.00000  Uiso   1.00
C3463  C     0.37500   0.98500   0.86425   0.00000  Uiso   1.00
C3464  C     0.37500   0.96770   0.84575   0.00000  Uiso   1.00
C3465  C     0.25000   0.89000   0.76075   0.00000  Uiso   1.00
C3466  C     0.25000   0.90730   0.77925   0.00000  Uiso   1.00
C3467  C     0.37500   0.76500   0.88575   0.00000  Uiso   1.00
C3468  C     0.37500   0.78230   0.90425   0.00000  Uiso   1.00
C3469  C     0.25000   0.98500   0.76075   0.00000  Uiso   1.00
C3470  C     0.25000   0.96770   0.77925   0.00000  Uiso   1.00
C3471  C     0.37500   0.86000   0.88575   0.00000  Uiso   1.00
C3472  C     0.37500   0.84270   0.90425   0.00000  Uiso   1.00
O3473  O     0.53900   0.79175   0.96043   0.00000  Uiso   1.00
C3474  C     0.70200   0.75905   0.99350   0.00000  Uiso   1.00
O3475  O     0.66400   0.91675   0.83543   0.00000  Uiso   1.00
C3476  C     0.57700   0.88405   0.86850   0.00000  Uiso   1.00
O3477  O     0.71100   0.83325   0.96043   0.00000  Uiso   1.00
C3478  C     0.54800   0.86595   0.99350   0.00000  Uiso   1.00
O3479  O     0.58600   0.95825   0.83543   0.00000  Uiso   1.00
C3480  C     0.67300   0.99095   0.86850   0.00000  Uiso   1.00
O3481  O     0.71100   0.91675   0.78957   0.00000  Uiso   1.00
C3482  C     0.54800   0.88405   0.75650   0.00000  Uiso   1.00
O3483  O     0.58600   0.79175   0.91458   0.00000  Uiso   1.00
C3484  C     0.67300   0.75905   0.88150   0.00000  Uiso   1.00
O3485  O     0.53900   0.95825   0.78957   0.00000  Uiso   1.00
C3486  C     0.70200   0.99095   0.75650   0.00000  Uiso   1.00
O3487  O     0.66400   0.83325   0.91458   0.00000  Uiso   1.00
C3488  C     0.57700   0.86595   0.88150   0.00000  Uiso   1.00
O3489  O     0.71100   0.95825   0.78957   0.00000  Uiso   1.00
C3490  C     0.54800   0.99095   0.75650   0.00000  Uiso   1.00
O3491  O     0.58600   0.83325   0.91458   0.00000  Uiso   1.00
C3492  C     0.67300   0.86595   0.88150   0.00000  Uiso   1.00
O3493  O     0.53900   0.91675   0.78957   0.00000  Uiso   1.00
C3494  C     0.70200   0.88405   0.75650   0.00000  Uiso   1.00
O3495  O     0.66400   0.79175   0.91458   0.00000  Uiso   1.00
C3496  C     0.57700   0.75905   0.88150   0.00000  Uiso   1.00
O3497  O     0.53900   0.83325   0.96043   0.00000  Uiso   1.00
C3498  C     0.70200   0.86595   0.99350   0.00000  Uiso   1.00
O3499  O     0.66400   0.95825   0.83543   0.00000  Uiso   1.00
C3500  C     0.57700   0.99095   0.86850   0.00000  Uiso   1.00
O3501  O     0.71100   0.79175   0.96043   0.00000  Uiso   1.00
C3502  C     0.54800   0.75905   0.99350   0.00000  Uiso   1.00
O3503  O     0.58600   0.91675   0.83543   0.00000  Uiso   1.00
C3504  C     0.67300   0.88405   0.86850   0.00000  Uiso   1.00
Al3505 Al    0.56250   0.81250   0.93750   0.00000  Uiso   1.00
Al3506 Al    0.68750   0.81250   0.93750   0.00000  Uiso   1.00
Al3507 Al    0.68750   0.93750   0.81250   0.00000  Uiso   1.00
Al3508 Al    0.56250   0.93750   0.81250   0.00000  Uiso   1.00
O3509  O     0.50000   0.81250   0.92325   0.00000  Uiso   1.00
O3510  O     0.62500   0.93750   0.79825   0.00000  Uiso   1.00
O3511  O     0.50000   0.93750   0.82675   0.00000  Uiso   1.00
O3512  O     0.62500   0.81250   0.95175   0.00000  Uiso   1.00
C3513  C     0.50000   0.76500   0.98925   0.00000  Uiso   1.00
C3514  C     0.50000   0.78230   0.97075   0.00000  Uiso   1.00
C3515  C     0.62500   0.89000   0.86425   0.00000  Uiso   1.00
C3516  C     0.62500   0.90730   0.84575   0.00000  Uiso   1.00
C3517  C     0.50000   0.86000   0.98925   0.00000  Uiso   1.00
C3518  C     0.50000   0.84270   0.97075   0.00000  Uiso   1.00
C3519  C     0.62500   0.98500   0.86425   0.00000  Uiso   1.00
C3520  C     0.62500   0.96770   0.84575   0.00000  Uiso   1.00
C3521  C     0.50000   0.89000   0.76075   0.00000  Uiso   1.00
C3522  C     0.50000   0.90730   0.77925   0.00000  Uiso   1.00
C3523  C     0.62500   0.76500   0.88575   0.00000  Uiso   1.00
C3524  C     0.62500   0.78230   0.90425   0.00000  Uiso   1.00
C3525  C     0.50000   0.98500   0.76075   0.00000  Uiso   1.00
C3526  C     0.50000   0.96770   0.77925   0.00000  Uiso   1.00
C3527  C     0.62500   0.86000   0.88575   0.00000  Uiso   1.00
C3528  C     0.62500   0.84270   0.90425   0.00000  Uiso   1.00
O3529  O     0.78900   0.79175   0.96043   0.00000  Uiso   1.00
C3530  C     0.95200   0.75905   0.99350   0.00000  Uiso   1.00
O3531  O     0.91400   0.91675   0.83543   0.00000  Uiso   1.00
C3532  C     0.82700   0.88405   0.86850   0.00000  Uiso   1.00
O3533  O     0.96100   0.83325   0.96043   0.00000  Uiso   1.00
C3534  C     0.79800   0.86595   0.99350   0.00000  Uiso   1.00
O3535  O     0.83600   0.95825   0.83543   0.00000  Uiso   1.00
C3536  C     0.92300   0.99095   0.86850   0.00000  Uiso   1.00
O3537  O     0.96100   0.91675   0.78957   0.00000  Uiso   1.00
C3538  C     0.79800   0.88405   0.75650   0.00000  Uiso   1.00
O3539  O     0.83600   0.79175   0.91458   0.00000  Uiso   1.00
C3540  C     0.92300   0.75905   0.88150   0.00000  Uiso   1.00
O3541  O     0.78900   0.95825   0.78957   0.00000  Uiso   1.00
C3542  C     0.95200   0.99095   0.75650   0.00000  Uiso   1.00
O3543  O     0.91400   0.83325   0.91458   0.00000  Uiso   1.00
C3544  C     0.82700   0.86595   0.88150   0.00000  Uiso   1.00
O3545  O     0.96100   0.95825   0.78957   0.00000  Uiso   1.00
C3546  C     0.79800   0.99095   0.75650   0.00000  Uiso   1.00
O3547  O     0.83600   0.83325   0.91458   0.00000  Uiso   1.00
C3548  C     0.92300   0.86595   0.88150   0.00000  Uiso   1.00
O3549  O     0.78900   0.91675   0.78957   0.00000  Uiso   1.00
C3550  C     0.95200   0.88405   0.75650   0.00000  Uiso   1.00
O3551  O     0.91400   0.79175   0.91458   0.00000  Uiso   1.00
C3552  C     0.82700   0.75905   0.88150   0.00000  Uiso   1.00
O3553  O     0.78900   0.83325   0.96043   0.00000  Uiso   1.00
C3554  C     0.95200   0.86595   0.99350   0.00000  Uiso   1.00
O3555  O     0.91400   0.95825   0.83543   0.00000  Uiso   1.00
C3556  C     0.82700   0.99095   0.86850   0.00000  Uiso   1.00
O3557  O     0.96100   0.79175   0.96043   0.00000  Uiso   1.00
C3558  C     0.79800   0.75905   0.99350   0.00000  Uiso   1.00
O3559  O     0.83600   0.91675   0.83543   0.00000  Uiso   1.00
C3560  C     0.92300   0.88405   0.86850   0.00000  Uiso   1.00
Al3561 Al    0.81250   0.81250   0.93750   0.00000  Uiso   1.00
Al3562 Al    0.93750   0.81250   0.93750   0.00000  Uiso   1.00
Al3563 Al    0.93750   0.93750   0.81250   0.00000  Uiso   1.00
Al3564 Al    0.81250   0.93750   0.81250   0.00000  Uiso   1.00
O3565  O     0.75000   0.81250   0.92325   0.00000  Uiso   1.00
O3566  O     0.87500   0.93750   0.79825   0.00000  Uiso   1.00
O3567  O     0.75000   0.93750   0.82675   0.00000  Uiso   1.00
O3568  O     0.87500   0.81250   0.95175   0.00000  Uiso   1.00
C3569  C     0.75000   0.76500   0.98925   0.00000  Uiso   1.00
C3570  C     0.75000   0.78230   0.97075   0.00000  Uiso   1.00
C3571  C     0.87500   0.89000   0.86425   0.00000  Uiso   1.00
C3572  C     0.87500   0.90730   0.84575   0.00000  Uiso   1.00
C3573  C     0.75000   0.86000   0.98925   0.00000  Uiso   1.00
C3574  C     0.75000   0.84270   0.97075   0.00000  Uiso   1.00
C3575  C     0.87500   0.98500   0.86425   0.00000  Uiso   1.00
C3576  C     0.87500   0.96770   0.84575   0.00000  Uiso   1.00
C3577  C     0.75000   0.89000   0.76075   0.00000  Uiso   1.00
C3578  C     0.75000   0.90730   0.77925   0.00000  Uiso   1.00
C3579  C     0.87500   0.76500   0.88575   0.00000  Uiso   1.00
C3580  C     0.87500   0.78230   0.90425   0.00000  Uiso   1.00
C3581  C     0.75000   0.98500   0.76075   0.00000  Uiso   1.00
C3582  C     0.75000   0.96770   0.77925   0.00000  Uiso   1.00
C3583  C     0.87500   0.86000   0.88575   0.00000  Uiso   1.00
C3584  C     0.87500   0.84270   0.90425   0.00000  Uiso   1.00
loop_
_geom_bond_atom_site_label_1
_geom_bond_atom_site_label_2
_geom_bond_distance
_geom_bond_site_symmetry_2
_ccdc_geom_bond_type
O1     Al33    1.919   .     S
O1     C42     1.319   .     A
C2     C97     1.347   .     A
C2     C1582   1.379   1_545 A
O3     Al35    1.919   .     S
O3     C44     1.319   .     A
C4     C43     1.347   .     A
C4     C16     1.379   .     A
O5     Al34    1.919   .     S
O5     C102    1.319   .     A
C6     C45     1.347   .     A
C6     C906    1.379   .     A
O7     Al36    1.919   .     S
O7     C48     1.319   .     A
C8     C47     1.347   .     A
C8     C236    1.379   .     A
O9     Al35    1.919   .     S
O9     C106    1.319   .     A
C10    C49     1.347   .     A
C10    C2694   1.379   1_554 A
O11    Al33    1.919   .     S
O11    C52     1.319   .     A
C12    C51     1.347   .     A
C12    C680    1.379   1_545 A
O13    Al36    1.919   .     S
O13    C54     1.319   .     A
C14    C109    1.347   .     A
C14    C2914   1.379   1_554 A
O15    Al34    1.919   .     S
O15    C56     1.319   .     A
C16    C55     1.347   .     A
O17    Al35    1.919   .     S
O17    C110    1.319   .     A
C18    C53     1.347   .     A
C18    C2942   1.379   1_554 A
O19    Al33    1.919   .     S
O19    C56     1.319   .     A
C20    C55     1.347   .     A
C20    C32     1.379   .     A
O21    Al36    1.919   .     S
O21    C50     1.319   .     A
C22    C105    1.347   .     A
C22    C2714   1.379   1_554 A
O23    Al34    1.919   .     S
O23    C52     1.319   .     A
C24    C51     1.347   .     A
C24    C700    1.379   1_545 A
O25    Al33    1.919   .     S
O25    C46     1.319   .     A
C26    C101    1.347   .     A
C26    C918    1.379   .     A
O27    Al35    1.919   .     S
O27    C48     1.319   .     A
C28    C47     1.347   .     A
C28    C248    1.379   .     A
O29    Al34    1.919   .     S
O29    C98     1.319   .     A
C30    C41     1.347   .     A
C30    C1586   1.379   1_545 A
O31    Al36    1.919   .     S
O31    C44     1.319   .     A
C32    C43     1.347   .     A
Al33   O37     1.806   .     S
Al33   O40     1.806   .     S
Al34   O93     1.806   .     S
Al34   O40     1.806   .     S
Al35   O95     1.806   .     S
Al35   O38     1.806   .     S
Al36   O39     1.806   .     S
Al36   O38     1.806   .     S
O37    Al202   1.806   1_455 S
O39    Al203   1.806   1_455 S
C41    C170    1.347   1_455 A
C41    C42     1.493   .     S
C42    O197    1.319   1_455 A
C43    C44     1.493   .     S
C45    C194    1.347   1_455 A
C45    C46     1.493   .     S
C46    O173    1.319   1_455 A
C47    C48     1.493   .     S
C49    C190    1.347   1_455 A
C49    C50     1.493   .     S
C50    O177    1.319   1_455 A
C51    C52     1.493   .     S
C53    C182    1.347   1_455 A
C53    C54     1.493   .     S
C54    O185    1.319   1_455 A
C55    C56     1.493   .     S
O57    Al89    1.919   .     S
O57    C98     1.319   .     A
C58    C153    1.347   .     A
C58    C1638   1.379   1_545 A
O59    Al91    1.919   .     S
O59    C100    1.319   .     A
C60    C99     1.347   .     A
C60    C72     1.379   .     A
O61    Al90    1.919   .     S
O61    C158    1.319   .     A
C62    C101    1.347   .     A
C62    C962    1.379   .     A
O63    Al92    1.919   .     S
O63    C104    1.319   .     A
C64    C103    1.347   .     A
C64    C292    1.379   .     A
O65    Al91    1.919   .     S
O65    C162    1.319   .     A
C66    C105    1.347   .     A
C66    C2750   1.379   1_554 A
O67    Al89    1.919   .     S
O67    C108    1.319   .     A
C68    C107    1.347   .     A
C68    C736    1.379   1_545 A
O69    Al92    1.919   .     S
O69    C110    1.319   .     A
C70    C165    1.347   .     A
C70    C2970   1.379   1_554 A
O71    Al90    1.919   .     S
O71    C112    1.319   .     A
C72    C111    1.347   .     A
O73    Al91    1.919   .     S
O73    C166    1.319   .     A
C74    C109    1.347   .     A
C74    C2998   1.379   1_554 A
O75    Al89    1.919   .     S
O75    C112    1.319   .     A
C76    C111    1.347   .     A
C76    C88     1.379   .     A
O77    Al92    1.919   .     S
O77    C106    1.319   .     A
C78    C161    1.347   .     A
C78    C2770   1.379   1_554 A
O79    Al90    1.919   .     S
O79    C108    1.319   .     A
C80    C107    1.347   .     A
C80    C756    1.379   1_545 A
O81    Al89    1.919   .     S
O81    C102    1.319   .     A
C82    C157    1.347   .     A
C82    C974    1.379   .     A
O83    Al91    1.919   .     S
O83    C104    1.319   .     A
C84    C103    1.347   .     A
C84    C304    1.379   .     A
O85    Al90    1.919   .     S
O85    C154    1.319   .     A
C86    C97     1.347   .     A
C86    C1642   1.379   1_545 A
O87    Al92    1.919   .     S
O87    C100    1.319   .     A
C88    C99     1.347   .     A
Al89   O93     1.806   .     S
Al89   O96     1.806   .     S
Al90   O149    1.806   .     S
Al90   O96     1.806   .     S
Al91   O151    1.806   .     S
Al91   O94     1.806   .     S
Al92   O95     1.806   .     S
Al92   O94     1.806   .     S
C97    C98     1.493   .     S
C99    C100    1.493   .     S
C101   C102    1.493   .     S
C103   C104    1.493   .     S
C105   C106    1.493   .     S
C107   C108    1.493   .     S
C109   C110    1.493   .     S
C111   C112    1.493   .     S
O113   Al145   1.919   .     S
O113   C154    1.319   .     A
C114   C209    1.347   .     A
C114   C1694   1.379   1_545 A
O115   Al147   1.919   .     S
O115   C156    1.319   .     A
C116   C155    1.347   .     A
C116   C128    1.379   .     A
O117   Al146   1.919   .     S
O117   C214    1.319   .     A
C118   C157    1.347   .     A
C118   C1018   1.379   .     A
O119   Al148   1.919   .     S
O119   C160    1.319   .     A
C120   C159    1.347   .     A
C120   C348    1.379   .     A
O121   Al147   1.919   .     S
O121   C218    1.319   .     A
C122   C161    1.347   .     A
C122   C2806   1.379   1_554 A
O123   Al145   1.919   .     S
O123   C164    1.319   .     A
C124   C163    1.347   .     A
C124   C792    1.379   1_545 A
O125   Al148   1.919   .     S
O125   C166    1.319   .     A
C126   C221    1.347   .     A
C126   C3026   1.379   1_554 A
O127   Al146   1.919   .     S
O127   C168    1.319   .     A
C128   C167    1.347   .     A
O129   Al147   1.919   .     S
O129   C222    1.319   .     A
C130   C165    1.347   .     A
C130   C3054   1.379   1_554 A
O131   Al145   1.919   .     S
O131   C168    1.319   .     A
C132   C167    1.347   .     A
C132   C144    1.379   .     A
O133   Al148   1.919   .     S
O133   C162    1.319   .     A
C134   C217    1.347   .     A
C134   C2826   1.379   1_554 A
O135   Al146   1.919   .     S
O135   C164    1.319   .     A
C136   C163    1.347   .     A
C136   C812    1.379   1_545 A
O137   Al145   1.919   .     S
O137   C158    1.319   .     A
C138   C213    1.347   .     A
C138   C1030   1.379   .     A
O139   Al147   1.919   .     S
O139   C160    1.319   .     A
C140   C159    1.347   .     A
C140   C360    1.379   .     A
O141   Al146   1.919   .     S
O141   C210    1.319   .     A
C142   C153    1.347   .     A
C142   C1698   1.379   1_545 A
O143   Al148   1.919   .     S
O143   C156    1.319   .     A
C144   C155    1.347   .     A
Al145  O149    1.806   .     S
Al145  O152    1.806   .     S
Al146  O205    1.806   .     S
Al146  O152    1.806   .     S
Al147  O207    1.806   .     S
Al147  O150    1.806   .     S
Al148  O151    1.806   .     S
Al148  O150    1.806   .     S
C153   C154    1.493   .     S
C155   C156    1.493   .     S
C157   C158    1.493   .     S
C159   C160    1.493   .     S
C161   C162    1.493   .     S
C163   C164    1.493   .     S
C165   C166    1.493   .     S
C167   C168    1.493   .     S
O169   Al201   1.919   .     S
O169   C210    1.319   .     A
C170   C41     1.347   1_655 A
C170   C1750   1.379   1_545 A
O171   Al203   1.919   .     S
O171   C212    1.319   .     A
C172   C211    1.347   .     A
C172   C184    1.379   .     A
O173   Al202   1.919   .     S
O173   C46     1.319   1_655 A
C174   C213    1.347   .     A
C174   C1074   1.379   .     A
O175   Al204   1.919   .     S
O175   C216    1.319   .     A
C176   C215    1.347   .     A
C176   C404    1.379   .     A
O177   Al203   1.919   .     S
O177   C50     1.319   1_655 A
C178   C217    1.347   .     A
C178   C2862   1.379   1_554 A
O179   Al201   1.919   .     S
O179   C220    1.319   .     A
C180   C219    1.347   .     A
C180   C848    1.379   1_545 A
O181   Al204   1.919   .     S
O181   C222    1.319   .     A
C182   C53     1.347   1_655 A
C182   C3082   1.379   1_554 A
O183   Al202   1.919   .     S
O183   C224    1.319   .     A
C184   C223    1.347   .     A
O185   Al203   1.919   .     S
O185   C54     1.319   1_655 A
C186   C221    1.347   .     A
C186   C3110   1.379   1_554 A
O187   Al201   1.919   .     S
O187   C224    1.319   .     A
C188   C223    1.347   .     A
C188   C200    1.379   .     A
O189   Al204   1.919   .     S
O189   C218    1.319   .     A
C190   C49     1.347   1_655 A
C190   C2882   1.379   1_554 A
O191   Al202   1.919   .     S
O191   C220    1.319   .     A
C192   C219    1.347   .     A
C192   C868    1.379   1_545 A
O193   Al201   1.919   .     S
O193   C214    1.319   .     A
C194   C45     1.347   1_655 A
C194   C1086   1.379   .     A
O195   Al203   1.919   .     S
O195   C216    1.319   .     A
C196   C215    1.347   .     A
C196   C416    1.379   .     A
O197   Al202   1.919   .     S
O197   C42     1.319   1_655 A
C198   C209    1.347   .     A
C198   C1754   1.379   1_545 A
O199   Al204   1.919   .     S
O199   C212    1.319   .     A
C200   C211    1.347   .     A
Al201  O205    1.806   .     S
Al201  O208    1.806   .     S
Al202  O37     1.806   1_655 S
Al202  O208    1.806   .     S
Al203  O39     1.806   1_655 S
Al203  O206    1.806   .     S
Al204  O207    1.806   .     S
Al204  O206    1.806   .     S
C209   C210    1.493   .     S
C211   C212    1.493   .     S
C213   C214    1.493   .     S
C215   C216    1.493   .     S
C217   C218    1.493   .     S
C219   C220    1.493   .     S
C221   C222    1.493   .     S
C223   C224    1.493   .     S
O225   Al257   1.919   .     S
O225   C266    1.319   .     A
C226   C321    1.347   .     A
C226   C910    1.379   .     A
O227   Al259   1.919   .     S
O227   C268    1.319   .     A
C228   C267    1.347   .     A
C228   C240    1.379   .     A
O229   Al258   1.919   .     S
O229   C326    1.319   .     A
C230   C269    1.347   .     A
C230   C1130   1.379   .     A
O231   Al260   1.919   .     S
O231   C272    1.319   .     A
C232   C271    1.347   .     A
C232   C460    1.379   .     A
O233   Al259   1.919   .     S
O233   C330    1.319   .     A
C234   C273    1.347   .     A
C234   C2918   1.379   1_554 A
O235   Al257   1.919   .     S
O235   C276    1.319   .     A
C236   C275    1.347   .     A
O237   Al260   1.919   .     S
O237   C278    1.319   .     A
C238   C333    1.347   .     A
C238   C3138   1.379   1_554 A
O239   Al258   1.919   .     S
O239   C280    1.319   .     A
C240   C279    1.347   .     A
O241   Al259   1.919   .     S
O241   C334    1.319   .     A
C242   C277    1.347   .     A
C242   C3166   1.379   1_554 A
O243   Al257   1.919   .     S
O243   C280    1.319   .     A
C244   C279    1.347   .     A
C244   C256    1.379   .     A
O245   Al260   1.919   .     S
O245   C274    1.319   .     A
C246   C329    1.347   .     A
C246   C2938   1.379   1_554 A
O247   Al258   1.919   .     S
O247   C276    1.319   .     A
C248   C275    1.347   .     A
O249   Al257   1.919   .     S
O249   C270    1.319   .     A
C250   C325    1.347   .     A
C250   C1142   1.379   .     A
O251   Al259   1.919   .     S
O251   C272    1.319   .     A
C252   C271    1.347   .     A
C252   C472    1.379   .     A
O253   Al258   1.919   .     S
O253   C322    1.319   .     A
C254   C265    1.347   .     A
C254   C914    1.379   .     A
O255   Al260   1.919   .     S
O255   C268    1.319   .     A
C256   C267    1.347   .     A
Al257  O261    1.806   .     S
Al257  O264    1.806   .     S
Al258  O317    1.806   .     S
Al258  O264    1.806   .     S
Al259  O319    1.806   .     S
Al259  O262    1.806   .     S
Al260  O263    1.806   .     S
Al260  O262    1.806   .     S
O261   Al426   1.806   1_455 S
O263   Al427   1.806   1_455 S
C265   C394    1.347   1_455 A
C265   C266    1.493   .     S
C266   O421    1.319   1_455 A
C267   C268    1.493   .     S
C269   C418    1.347   1_455 A
C269   C270    1.493   .     S
C270   O397    1.319   1_455 A
C271   C272    1.493   .     S
C273   C414    1.347   1_455 A
C273   C274    1.493   .     S
C274   O401    1.319   1_455 A
C275   C276    1.493   .     S
C277   C406    1.347   1_455 A
C277   C278    1.493   .     S
C278   O409    1.319   1_455 A
C279   C280    1.493   .     S
O281   Al313   1.919   .     S
O281   C322    1.319   .     A
C282   C377    1.347   .     A
C282   C966    1.379   .     A
O283   Al315   1.919   .     S
O283   C324    1.319   .     A
C284   C323    1.347   .     A
C284   C296    1.379   .     A
O285   Al314   1.919   .     S
O285   C382    1.319   .     A
C286   C325    1.347   .     A
C286   C1186   1.379   .     A
O287   Al316   1.919   .     S
O287   C328    1.319   .     A
C288   C327    1.347   .     A
C288   C516    1.379   .     A
O289   Al315   1.919   .     S
O289   C386    1.319   .     A
C290   C329    1.347   .     A
C290   C2974   1.379   1_554 A
O291   Al313   1.919   .     S
O291   C332    1.319   .     A
C292   C331    1.347   .     A
O293   Al316   1.919   .     S
O293   C334    1.319   .     A
C294   C389    1.347   .     A
C294   C3194   1.379   1_554 A
O295   Al314   1.919   .     S
O295   C336    1.319   .     A
C296   C335    1.347   .     A
O297   Al315   1.919   .     S
O297   C390    1.319   .     A
C298   C333    1.347   .     A
C298   C3222   1.379   1_554 A
O299   Al313   1.919   .     S
O299   C336    1.319   .     A
C300   C335    1.347   .     A
C300   C312    1.379   .     A
O301   Al316   1.919   .     S
O301   C330    1.319   .     A
C302   C385    1.347   .     A
C302   C2994   1.379   1_554 A
O303   Al314   1.919   .     S
O303   C332    1.319   .     A
C304   C331    1.347   .     A
O305   Al313   1.919   .     S
O305   C326    1.319   .     A
C306   C381    1.347   .     A
C306   C1198   1.379   .     A
O307   Al315   1.919   .     S
O307   C328    1.319   .     A
C308   C327    1.347   .     A
C308   C528    1.379   .     A
O309   Al314   1.919   .     S
O309   C378    1.319   .     A
C310   C321    1.347   .     A
C310   C970    1.379   .     A
O311   Al316   1.919   .     S
O311   C324    1.319   .     A
C312   C323    1.347   .     A
Al313  O317    1.806   .     S
Al313  O320    1.806   .     S
Al314  O373    1.806   .     S
Al314  O320    1.806   .     S
Al315  O375    1.806   .     S
Al315  O318    1.806   .     S
Al316  O319    1.806   .     S
Al316  O318    1.806   .     S
C321   C322    1.493   .     S
C323   C324    1.493   .     S
C325   C326    1.493   .     S
C327   C328    1.493   .     S
C329   C330    1.493   .     S
C331   C332    1.493   .     S
C333   C334    1.493   .     S
C335   C336    1.493   .     S
O337   Al369   1.919   .     S
O337   C378    1.319   .     A
C338   C433    1.347   .     A
C338   C1022   1.379   .     A
O339   Al371   1.919   .     S
O339   C380    1.319   .     A
C340   C379    1.347   .     A
C340   C352    1.379   .     A
O341   Al370   1.919   .     S
O341   C438    1.319   .     A
C342   C381    1.347   .     A
C342   C1242   1.379   .     A
O343   Al372   1.919   .     S
O343   C384    1.319   .     A
C344   C383    1.347   .     A
C344   C572    1.379   .     A
O345   Al371   1.919   .     S
O345   C442    1.319   .     A
C346   C385    1.347   .     A
C346   C3030   1.379   1_554 A
O347   Al369   1.919   .     S
O347   C388    1.319   .     A
C348   C387    1.347   .     A
O349   Al372   1.919   .     S
O349   C390    1.319   .     A
C350   C445    1.347   .     A
C350   C3250   1.379   1_554 A
O351   Al370   1.919   .     S
O351   C392    1.319   .     A
C352   C391    1.347   .     A
O353   Al371   1.919   .     S
O353   C446    1.319   .     A
C354   C389    1.347   .     A
C354   C3278   1.379   1_554 A
O355   Al369   1.919   .     S
O355   C392    1.319   .     A
C356   C391    1.347   .     A
C356   C368    1.379   .     A
O357   Al372   1.919   .     S
O357   C386    1.319   .     A
C358   C441    1.347   .     A
C358   C3050   1.379   1_554 A
O359   Al370   1.919   .     S
O359   C388    1.319   .     A
C360   C387    1.347   .     A
O361   Al369   1.919   .     S
O361   C382    1.319   .     A
C362   C437    1.347   .     A
C362   C1254   1.379   .     A
O363   Al371   1.919   .     S
O363   C384    1.319   .     A
C364   C383    1.347   .     A
C364   C584    1.379   .     A
O365   Al370   1.919   .     S
O365   C434    1.319   .     A
C366   C377    1.347   .     A
C366   C1026   1.379   .     A
O367   Al372   1.919   .     S
O367   C380    1.319   .     A
C368   C379    1.347   .     A
Al369  O373    1.806   .     S
Al369  O376    1.806   .     S
Al370  O429    1.806   .     S
Al370  O376    1.806   .     S
Al371  O431    1.806   .     S
Al371  O374    1.806   .     S
Al372  O375    1.806   .     S
Al372  O374    1.806   .     S
C377   C378    1.493   .     S
C379   C380    1.493   .     S
C381   C382    1.493   .     S
C383   C384    1.493   .     S
C385   C386    1.493   .     S
C387   C388    1.493   .     S
C389   C390    1.493   .     S
C391   C392    1.493   .     S
O393   Al425   1.919   .     S
O393   C434    1.319   .     A
C394   C265    1.347   1_655 A
C394   C1078   1.379   .     A
O395   Al427   1.919   .     S
O395   C436    1.319   .     A
C396   C435    1.347   .     A
C396   C408    1.379   .     A
O397   Al426   1.919   .     S
O397   C270    1.319   1_655 A
C398   C437    1.347   .     A
C398   C1298   1.379   .     A
O399   Al428   1.919   .     S
O399   C440    1.319   .     A
C400   C439    1.347   .     A
C400   C628    1.379   .     A
O401   Al427   1.919   .     S
O401   C274    1.319   1_655 A
C402   C441    1.347   .     A
C402   C3086   1.379   1_554 A
O403   Al425   1.919   .     S
O403   C444    1.319   .     A
C404   C443    1.347   .     A
O405   Al428   1.919   .     S
O405   C446    1.319   .     A
C406   C277    1.347   1_655 A
C406   C3306   1.379   1_554 A
O407   Al426   1.919   .     S
O407   C448    1.319   .     A
C408   C447    1.347   .     A
O409   Al427   1.919   .     S
O409   C278    1.319   1_655 A
C410   C445    1.347   .     A
C410   C3334   1.379   1_554 A
O411   Al425   1.919   .     S
O411   C448    1.319   .     A
C412   C447    1.347   .     A
C412   C424    1.379   .     A
O413   Al428   1.919   .     S
O413   C442    1.319   .     A
C414   C273    1.347   1_655 A
C414   C3106   1.379   1_554 A
O415   Al426   1.919   .     S
O415   C444    1.319   .     A
C416   C443    1.347   .     A
O417   Al425   1.919   .     S
O417   C438    1.319   .     A
C418   C269    1.347   1_655 A
C418   C1310   1.379   .     A
O419   Al427   1.919   .     S
O419   C440    1.319   .     A
C420   C439    1.347   .     A
C420   C640    1.379   .     A
O421   Al426   1.919   .     S
O421   C266    1.319   1_655 A
C422   C433    1.347   .     A
C422   C1082   1.379   .     A
O423   Al428   1.919   .     S
O423   C436    1.319   .     A
C424   C435    1.347   .     A
Al425  O429    1.806   .     S
Al425  O432    1.806   .     S
Al426  O261    1.806   1_655 S
Al426  O432    1.806   .     S
Al427  O263    1.806   1_655 S
Al427  O430    1.806   .     S
Al428  O431    1.806   .     S
Al428  O430    1.806   .     S
C433   C434    1.493   .     S
C435   C436    1.493   .     S
C437   C438    1.493   .     S
C439   C440    1.493   .     S
C441   C442    1.493   .     S
C443   C444    1.493   .     S
C445   C446    1.493   .     S
C447   C448    1.493   .     S
O449   Al481   1.919   .     S
O449   C490    1.319   .     A
C450   C545    1.347   .     A
C450   C1134   1.379   .     A
O451   Al483   1.919   .     S
O451   C492    1.319   .     A
C452   C491    1.347   .     A
C452   C464    1.379   .     A
O453   Al482   1.919   .     S
O453   C550    1.319   .     A
C454   C493    1.347   .     A
C454   C1354   1.379   .     A
O455   Al484   1.919   .     S
O455   C496    1.319   .     A
C456   C495    1.347   .     A
C456   C684    1.379   .     A
O457   Al483   1.919   .     S
O457   C554    1.319   .     A
C458   C497    1.347   .     A
C458   C3142   1.379   1_554 A
O459   Al481   1.919   .     S
O459   C500    1.319   .     A
C460   C499    1.347   .     A
O461   Al484   1.919   .     S
O461   C502    1.319   .     A
C462   C557    1.347   .     A
C462   C3362   1.379   1_554 A
O463   Al482   1.919   .     S
O463   C504    1.319   .     A
C464   C503    1.347   .     A
O465   Al483   1.919   .     S
O465   C558    1.319   .     A
C466   C501    1.347   .     A
C466   C3390   1.379   1_554 A
O467   Al481   1.919   .     S
O467   C504    1.319   .     A
C468   C503    1.347   .     A
C468   C480    1.379   .     A
O469   Al484   1.919   .     S
O469   C498    1.319   .     A
C470   C553    1.347   .     A
C470   C3162   1.379   1_554 A
O471   Al482   1.919   .     S
O471   C500    1.319   .     A
C472   C499    1.347   .     A
O473   Al481   1.919   .     S
O473   C494    1.319   .     A
C474   C549    1.347   .     A
C474   C1366   1.379   .     A
O475   Al483   1.919   .     S
O475   C496    1.319   .     A
C476   C495    1.347   .     A
C476   C696    1.379   .     A
O477   Al482   1.919   .     S
O477   C546    1.319   .     A
C478   C489    1.347   .     A
C478   C1138   1.379   .     A
O479   Al484   1.919   .     S
O479   C492    1.319   .     A
C480   C491    1.347   .     A
Al481  O485    1.806   .     S
Al481  O488    1.806   .     S
Al482  O541    1.806   .     S
Al482  O488    1.806   .     S
Al483  O543    1.806   .     S
Al483  O486    1.806   .     S
Al484  O487    1.806   .     S
Al484  O486    1.806   .     S
O485   Al650   1.806   1_455 S
O487   Al651   1.806   1_455 S
C489   C618    1.347   1_455 A
C489   C490    1.493   .     S
C490   O645    1.319   1_455 A
C491   C492    1.493   .     S
C493   C642    1.347   1_455 A
C493   C494    1.493   .     S
C494   O621    1.319   1_455 A
C495   C496    1.493   .     S
C497   C638    1.347   1_455 A
C497   C498    1.493   .     S
C498   O625    1.319   1_455 A
C499   C500    1.493   .     S
C501   C630    1.347   1_455 A
C501   C502    1.493   .     S
C502   O633    1.319   1_455 A
C503   C504    1.493   .     S
O505   Al537   1.919   .     S
O505   C546    1.319   .     A
C506   C601    1.347   .     A
C506   C1190   1.379   .     A
O507   Al539   1.919   .     S
O507   C548    1.319   .     A
C508   C547    1.347   .     A
C508   C520    1.379   .     A
O509   Al538   1.919   .     S
O509   C606    1.319   .     A
C510   C549    1.347   .     A
C510   C1410   1.379   .     A
O511   Al540   1.919   .     S
O511   C552    1.319   .     A
C512   C551    1.347   .     A
C512   C740    1.379   .     A
O513   Al539   1.919   .     S
O513   C610    1.319   .     A
C514   C553    1.347   .     A
C514   C3198   1.379   1_554 A
O515   Al537   1.919   .     S
O515   C556    1.319   .     A
C516   C555    1.347   .     A
O517   Al540   1.919   .     S
O517   C558    1.319   .     A
C518   C613    1.347   .     A
C518   C3418   1.379   1_554 A
O519   Al538   1.919   .     S
O519   C560    1.319   .     A
C520   C559    1.347   .     A
O521   Al539   1.919   .     S
O521   C614    1.319   .     A
C522   C557    1.347   .     A
C522   C3446   1.379   1_554 A
O523   Al537   1.919   .     S
O523   C560    1.319   .     A
C524   C559    1.347   .     A
C524   C536    1.379   .     A
O525   Al540   1.919   .     S
O525   C554    1.319   .     A
C526   C609    1.347   .     A
C526   C3218   1.379   1_554 A
O527   Al538   1.919   .     S
O527   C556    1.319   .     A
C528   C555    1.347   .     A
O529   Al537   1.919   .     S
O529   C550    1.319   .     A
C530   C605    1.347   .     A
C530   C1422   1.379   .     A
O531   Al539   1.919   .     S
O531   C552    1.319   .     A
C532   C551    1.347   .     A
C532   C752    1.379   .     A
O533   Al538   1.919   .     S
O533   C602    1.319   .     A
C534   C545    1.347   .     A
C534   C1194   1.379   .     A
O535   Al540   1.919   .     S
O535   C548    1.319   .     A
C536   C547    1.347   .     A
Al537  O541    1.806   .     S
Al537  O544    1.806   .     S
Al538  O597    1.806   .     S
Al538  O544    1.806   .     S
Al539  O599    1.806   .     S
Al539  O542    1.806   .     S
Al540  O543    1.806   .     S
Al540  O542    1.806   .     S
C545   C546    1.493   .     S
C547   C548    1.493   .     S
C549   C550    1.493   .     S
C551   C552    1.493   .     S
C553   C554    1.493   .     S
C555   C556    1.493   .     S
C557   C558    1.493   .     S
C559   C560    1.493   .     S
O561   Al593   1.919   .     S
O561   C602    1.319   .     A
C562   C657    1.347   .     A
C562   C1246   1.379   .     A
O563   Al595   1.919   .     S
O563   C604    1.319   .     A
C564   C603    1.347   .     A
C564   C576    1.379   .     A
O565   Al594   1.919   .     S
O565   C662    1.319   .     A
C566   C605    1.347   .     A
C566   C1466   1.379   .     A
O567   Al596   1.919   .     S
O567   C608    1.319   .     A
C568   C607    1.347   .     A
C568   C796    1.379   .     A
O569   Al595   1.919   .     S
O569   C666    1.319   .     A
C570   C609    1.347   .     A
C570   C3254   1.379   1_554 A
O571   Al593   1.919   .     S
O571   C612    1.319   .     A
C572   C611    1.347   .     A
O573   Al596   1.919   .     S
O573   C614    1.319   .     A
C574   C669    1.347   .     A
C574   C3474   1.379   1_554 A
O575   Al594   1.919   .     S
O575   C616    1.319   .     A
C576   C615    1.347   .     A
O577   Al595   1.919   .     S
O577   C670    1.319   .     A
C578   C613    1.347   .     A
C578   C3502   1.379   1_554 A
O579   Al593   1.919   .     S
O579   C616    1.319   .     A
C580   C615    1.347   .     A
C580   C592    1.379   .     A
O581   Al596   1.919   .     S
O581   C610    1.319   .     A
C582   C665    1.347   .     A
C582   C3274   1.379   1_554 A
O583   Al594   1.919   .     S
O583   C612    1.319   .     A
C584   C611    1.347   .     A
O585   Al593   1.919   .     S
O585   C606    1.319   .     A
C586   C661    1.347   .     A
C586   C1478   1.379   .     A
O587   Al595   1.919   .     S
O587   C608    1.319   .     A
C588   C607    1.347   .     A
C588   C808    1.379   .     A
O589   Al594   1.919   .     S
O589   C658    1.319   .     A
C590   C601    1.347   .     A
C590   C1250   1.379   .     A
O591   Al596   1.919   .     S
O591   C604    1.319   .     A
C592   C603    1.347   .     A
Al593  O597    1.806   .     S
Al593  O600    1.806   .     S
Al594  O653    1.806   .     S
Al594  O600    1.806   .     S
Al595  O655    1.806   .     S
Al595  O598    1.806   .     S
Al596  O599    1.806   .     S
Al596  O598    1.806   .     S
C601   C602    1.493   .     S
C603   C604    1.493   .     S
C605   C606    1.493   .     S
C607   C608    1.493   .     S
C609   C610    1.493   .     S
C611   C612    1.493   .     S
C613   C614    1.493   .     S
C615   C616    1.493   .     S
O617   Al649   1.919   .     S
O617   C658    1.319   .     A
C618   C489    1.347   1_655 A
C618   C1302   1.379   .     A
O619   Al651   1.919   .     S
O619   C660    1.319   .     A
C620   C659    1.347   .     A
C620   C632    1.379   .     A
O621   Al650   1.919   .     S
O621   C494    1.319   1_655 A
C622   C661    1.347   .     A
C622   C1522   1.379   .     A
O623   Al652   1.919   .     S
O623   C664    1.319   .     A
C624   C663    1.347   .     A
C624   C852    1.379   .     A
O625   Al651   1.919   .     S
O625   C498    1.319   1_655 A
C626   C665    1.347   .     A
C626   C3310   1.379   1_554 A
O627   Al649   1.919   .     S
O627   C668    1.319   .     A
C628   C667    1.347   .     A
O629   Al652   1.919   .     S
O629   C670    1.319   .     A
C630   C501    1.347   1_655 A
C630   C3530   1.379   1_554 A
O631   Al650   1.919   .     S
O631   C672    1.319   .     A
C632   C671    1.347   .     A
O633   Al651   1.919   .     S
O633   C502    1.319   1_655 A
C634   C669    1.347   .     A
C634   C3558   1.379   1_554 A
O635   Al649   1.919   .     S
O635   C672    1.319   .     A
C636   C671    1.347   .     A
C636   C648    1.379   .     A
O637   Al652   1.919   .     S
O637   C666    1.319   .     A
C638   C497    1.347   1_655 A
C638   C3330   1.379   1_554 A
O639   Al650   1.919   .     S
O639   C668    1.319   .     A
C640   C667    1.347   .     A
O641   Al649   1.919   .     S
O641   C662    1.319   .     A
C642   C493    1.347   1_655 A
C642   C1534   1.379   .     A
O643   Al651   1.919   .     S
O643   C664    1.319   .     A
C644   C663    1.347   .     A
C644   C864    1.379   .     A
O645   Al650   1.919   .     S
O645   C490    1.319   1_655 A
C646   C657    1.347   .     A
C646   C1306   1.379   .     A
O647   Al652   1.919   .     S
O647   C660    1.319   .     A
C648   C659    1.347   .     A
Al649  O653    1.806   .     S
Al649  O656    1.806   .     S
Al650  O485    1.806   1_655 S
Al650  O656    1.806   .     S
Al651  O487    1.806   1_655 S
Al651  O654    1.806   .     S
Al652  O655    1.806   .     S
Al652  O654    1.806   .     S
C657   C658    1.493   .     S
C659   C660    1.493   .     S
C661   C662    1.493   .     S
C663   C664    1.493   .     S
C665   C666    1.493   .     S
C667   C668    1.493   .     S
C669   C670    1.493   .     S
C671   C672    1.493   .     S
O673   Al705   1.919   .     S
O673   C714    1.319   .     A
C674   C769    1.347   .     A
C674   C1358   1.379   .     A
O675   Al707   1.919   .     S
O675   C716    1.319   .     A
C676   C715    1.347   .     A
C676   C688    1.379   .     A
O677   Al706   1.919   .     S
O677   C774    1.319   .     A
C678   C717    1.347   .     A
C678   C1578   1.379   .     A
O679   Al708   1.919   .     S
O679   C720    1.319   .     A
C680   C719    1.347   .     A
C680   C12     1.379   1_565 A
O681   Al707   1.919   .     S
O681   C778    1.319   .     A
C682   C721    1.347   .     A
C682   C3366   1.379   1_554 A
O683   Al705   1.919   .     S
O683   C724    1.319   .     A
C684   C723    1.347   .     A
O685   Al708   1.919   .     S
O685   C726    1.319   .     A
C686   C781    1.347   .     A
C686   C2690   1.379   1_564 A
O687   Al706   1.919   .     S
O687   C728    1.319   .     A
C688   C727    1.347   .     A
O689   Al707   1.919   .     S
O689   C782    1.319   .     A
C690   C725    1.347   .     A
C690   C2718   1.379   1_564 A
O691   Al705   1.919   .     S
O691   C728    1.319   .     A
C692   C727    1.347   .     A
C692   C704    1.379   .     A
O693   Al708   1.919   .     S
O693   C722    1.319   .     A
C694   C777    1.347   .     A
C694   C3386   1.379   1_554 A
O695   Al706   1.919   .     S
O695   C724    1.319   .     A
C696   C723    1.347   .     A
O697   Al705   1.919   .     S
O697   C718    1.319   .     A
C698   C773    1.347   .     A
C698   C1590   1.379   .     A
O699   Al707   1.919   .     S
O699   C720    1.319   .     A
C700   C719    1.347   .     A
C700   C24     1.379   1_565 A
O701   Al706   1.919   .     S
O701   C770    1.319   .     A
C702   C713    1.347   .     A
C702   C1362   1.379   .     A
O703   Al708   1.919   .     S
O703   C716    1.319   .     A
C704   C715    1.347   .     A
Al705  O709    1.806   .     S
Al705  O712    1.806   .     S
Al706  O765    1.806   .     S
Al706  O712    1.806   .     S
Al707  O767    1.806   .     S
Al707  O710    1.806   .     S
Al708  O711    1.806   .     S
Al708  O710    1.806   .     S
O709   Al874   1.806   1_455 S
O711   Al875   1.806   1_455 S
C713   C842    1.347   1_455 A
C713   C714    1.493   .     S
C714   O869    1.319   1_455 A
C715   C716    1.493   .     S
C717   C866    1.347   1_455 A
C717   C718    1.493   .     S
C718   O845    1.319   1_455 A
C719   C720    1.493   .     S
C721   C862    1.347   1_455 A
C721   C722    1.493   .     S
C722   O849    1.319   1_455 A
C723   C724    1.493   .     S
C725   C854    1.347   1_455 A
C725   C726    1.493   .     S
C726   O857    1.319   1_455 A
C727   C728    1.493   .     S
O729   Al761   1.919   .     S
O729   C770    1.319   .     A
C730   C825    1.347   .     A
C730   C1414   1.379   .     A
O731   Al763   1.919   .     S
O731   C772    1.319   .     A
C732   C771    1.347   .     A
C732   C744    1.379   .     A
O733   Al762   1.919   .     S
O733   C830    1.319   .     A
C734   C773    1.347   .     A
C734   C1634   1.379   .     A
O735   Al764   1.919   .     S
O735   C776    1.319   .     A
C736   C775    1.347   .     A
C736   C68     1.379   1_565 A
O737   Al763   1.919   .     S
O737   C834    1.319   .     A
C738   C777    1.347   .     A
C738   C3422   1.379   1_554 A
O739   Al761   1.919   .     S
O739   C780    1.319   .     A
C740   C779    1.347   .     A
O741   Al764   1.919   .     S
O741   C782    1.319   .     A
C742   C837    1.347   .     A
C742   C2746   1.379   1_564 A
O743   Al762   1.919   .     S
O743   C784    1.319   .     A
C744   C783    1.347   .     A
O745   Al763   1.919   .     S
O745   C838    1.319   .     A
C746   C781    1.347   .     A
C746   C2774   1.379   1_564 A
O747   Al761   1.919   .     S
O747   C784    1.319   .     A
C748   C783    1.347   .     A
C748   C760    1.379   .     A
O749   Al764   1.919   .     S
O749   C778    1.319   .     A
C750   C833    1.347   .     A
C750   C3442   1.379   1_554 A
O751   Al762   1.919   .     S
O751   C780    1.319   .     A
C752   C779    1.347   .     A
O753   Al761   1.919   .     S
O753   C774    1.319   .     A
C754   C829    1.347   .     A
C754   C1646   1.379   .     A
O755   Al763   1.919   .     S
O755   C776    1.319   .     A
C756   C775    1.347   .     A
C756   C80     1.379   1_565 A
O757   Al762   1.919   .     S
O757   C826    1.319   .     A
C758   C769    1.347   .     A
C758   C1418   1.379   .     A
O759   Al764   1.919   .     S
O759   C772    1.319   .     A
C760   C771    1.347   .     A
Al761  O765    1.806   .     S
Al761  O768    1.806   .     S
Al762  O821    1.806   .     S
Al762  O768    1.806   .     S
Al763  O823    1.806   .     S
Al763  O766    1.806   .     S
Al764  O767    1.806   .     S
Al764  O766    1.806   .     S
C769   C770    1.493   .     S
C771   C772    1.493   .     S
C773   C774    1.493   .     S
C775   C776    1.493   .     S
C777   C778    1.493   .     S
C779   C780    1.493   .     S
C781   C782    1.493   .     S
C783   C784    1.493   .     S
O785   Al817   1.919   .     S
O785   C826    1.319   .     A
C786   C881    1.347   .     A
C786   C1470   1.379   .     A
O787   Al819   1.919   .     S
O787   C828    1.319   .     A
C788   C827    1.347   .     A
C788   C800    1.379   .     A
O789   Al818   1.919   .     S
O789   C886    1.319   .     A
C790   C829    1.347   .     A
C790   C1690   1.379   .     A
O791   Al820   1.919   .     S
O791   C832    1.319   .     A
C792   C831    1.347   .     A
C792   C124    1.379   1_565 A
O793   Al819   1.919   .     S
O793   C890    1.319   .     A
C794   C833    1.347   .     A
C794   C3478   1.379   1_554 A
O795   Al817   1.919   .     S
O795   C836    1.319   .     A
C796   C835    1.347   .     A
O797   Al820   1.919   .     S
O797   C838    1.319   .     A
C798   C893    1.347   .     A
C798   C2802   1.379   1_564 A
O799   Al818   1.919   .     S
O799   C840    1.319   .     A
C800   C839    1.347   .     A
O801   Al819   1.919   .     S
O801   C894    1.319   .     A
C802   C837    1.347   .     A
C802   C2830   1.379   1_564 A
O803   Al817   1.919   .     S
O803   C840    1.319   .     A
C804   C839    1.347   .     A
C804   C816    1.379   .     A
O805   Al820   1.919   .     S
O805   C834    1.319   .     A
C806   C889    1.347   .     A
C806   C3498   1.379   1_554 A
O807   Al818   1.919   .     S
O807   C836    1.319   .     A
C808   C835    1.347   .     A
O809   Al817   1.919   .     S
O809   C830    1.319   .     A
C810   C885    1.347   .     A
C810   C1702   1.379   .     A
O811   Al819   1.919   .     S
O811   C832    1.319   .     A
C812   C831    1.347   .     A
C812   C136    1.379   1_565 A
O813   Al818   1.919   .     S
O813   C882    1.319   .     A
C814   C825    1.347   .     A
C814   C1474   1.379   .     A
O815   Al820   1.919   .     S
O815   C828    1.319   .     A
C816   C827    1.347   .     A
Al817  O821    1.806   .     S
Al817  O824    1.806   .     S
Al818  O877    1.806   .     S
Al818  O824    1.806   .     S
Al819  O879    1.806   .     S
Al819  O822    1.806   .     S
Al820  O823    1.806   .     S
Al820  O822    1.806   .     S
C825   C826    1.493   .     S
C827   C828    1.493   .     S
C829   C830    1.493   .     S
C831   C832    1.493   .     S
C833   C834    1.493   .     S
C835   C836    1.493   .     S
C837   C838    1.493   .     S
C839   C840    1.493   .     S
O841   Al873   1.919   .     S
O841   C882    1.319   .     A
C842   C713    1.347   1_655 A
C842   C1526   1.379   .     A
O843   Al875   1.919   .     S
O843   C884    1.319   .     A
C844   C883    1.347   .     A
C844   C856    1.379   .     A
O845   Al874   1.919   .     S
O845   C718    1.319   1_655 A
C846   C885    1.347   .     A
C846   C1746   1.379   .     A
O847   Al876   1.919   .     S
O847   C888    1.319   .     A
C848   C887    1.347   .     A
C848   C180    1.379   1_565 A
O849   Al875   1.919   .     S
O849   C722    1.319   1_655 A
C850   C889    1.347   .     A
C850   C3534   1.379   1_554 A
O851   Al873   1.919   .     S
O851   C892    1.319   .     A
C852   C891    1.347   .     A
O853   Al876   1.919   .     S
O853   C894    1.319   .     A
C854   C725    1.347   1_655 A
C854   C2858   1.379   1_564 A
O855   Al874   1.919   .     S
O855   C896    1.319   .     A
C856   C895    1.347   .     A
O857   Al875   1.919   .     S
O857   C726    1.319   1_655 A
C858   C893    1.347   .     A
C858   C2886   1.379   1_564 A
O859   Al873   1.919   .     S
O859   C896    1.319   .     A
C860   C895    1.347   .     A
C860   C872    1.379   .     A
O861   Al876   1.919   .     S
O861   C890    1.319   .     A
C862   C721    1.347   1_655 A
C862   C3554   1.379   1_554 A
O863   Al874   1.919   .     S
O863   C892    1.319   .     A
C864   C891    1.347   .     A
O865   Al873   1.919   .     S
O865   C886    1.319   .     A
C866   C717    1.347   1_655 A
C866   C1758   1.379   .     A
O867   Al875   1.919   .     S
O867   C888    1.319   .     A
C868   C887    1.347   .     A
C868   C192    1.379   1_565 A
O869   Al874   1.919   .     S
O869   C714    1.319   1_655 A
C870   C881    1.347   .     A
C870   C1530   1.379   .     A
O871   Al876   1.919   .     S
O871   C884    1.319   .     A
C872   C883    1.347   .     A
Al873  O877    1.806   .     S
Al873  O880    1.806   .     S
Al874  O709    1.806   1_655 S
Al874  O880    1.806   .     S
Al875  O711    1.806   1_655 S
Al875  O878    1.806   .     S
Al876  O879    1.806   .     S
Al876  O878    1.806   .     S
C881   C882    1.493   .     S
C883   C884    1.493   .     S
C885   C886    1.493   .     S
C887   C888    1.493   .     S
C889   C890    1.493   .     S
C891   C892    1.493   .     S
C893   C894    1.493   .     S
C895   C896    1.493   .     S
O897   Al929   1.919   .     S
O897   C938    1.319   .     A
C898   C993    1.347   .     A
C898   C2478   1.379   1_545 A
O899   Al931   1.919   .     S
O899   C940    1.319   .     A
C900   C939    1.347   .     A
C900   C912    1.379   .     A
O901   Al930   1.919   .     S
O901   C998    1.319   .     A
C902   C941    1.347   .     A
C902   C1802   1.379   .     A
O903   Al932   1.919   .     S
O903   C944    1.319   .     A
C904   C943    1.347   .     A
C904   C1132   1.379   .     A
O905   Al931   1.919   .     S
O905   C1002   1.319   .     A
C906   C945    1.347   .     A
O907   Al929   1.919   .     S
O907   C948    1.319   .     A
C908   C947    1.347   .     A
C908   C1576   1.379   1_545 A
O909   Al932   1.919   .     S
O909   C950    1.319   .     A
C910   C1005   1.347   .     A
O911   Al930   1.919   .     S
O911   C952    1.319   .     A
C912   C951    1.347   .     A
O913   Al931   1.919   .     S
O913   C1006   1.319   .     A
C914   C949    1.347   .     A
O915   Al929   1.919   .     S
O915   C952    1.319   .     A
C916   C951    1.347   .     A
C916   C928    1.379   .     A
O917   Al932   1.919   .     S
O917   C946    1.319   .     A
C918   C1001   1.347   .     A
O919   Al930   1.919   .     S
O919   C948    1.319   .     A
C920   C947    1.347   .     A
C920   C1596   1.379   1_545 A
O921   Al929   1.919   .     S
O921   C942    1.319   .     A
C922   C997    1.347   .     A
C922   C1814   1.379   .     A
O923   Al931   1.919   .     S
O923   C944    1.319   .     A
C924   C943    1.347   .     A
C924   C1144   1.379   .     A
O925   Al930   1.919   .     S
O925   C994    1.319   .     A
C926   C937    1.347   .     A
C926   C2482   1.379   1_545 A
O927   Al932   1.919   .     S
O927   C940    1.319   .     A
C928   C939    1.347   .     A
Al929  O933    1.806   .     S
Al929  O936    1.806   .     S
Al930  O989    1.806   .     S
Al930  O936    1.806   .     S
Al931  O991    1.806   .     S
Al931  O934    1.806   .     S
Al932  O935    1.806   .     S
Al932  O934    1.806   .     S
O933   Al1098  1.806   1_455 S
O935   Al1099  1.806   1_455 S
C937   C1066   1.347   1_455 A
C937   C938    1.493   .     S
C938   O1093   1.319   1_455 A
C939   C940    1.493   .     S
C941   C1090   1.347   1_455 A
C941   C942    1.493   .     S
C942   O1069   1.319   1_455 A
C943   C944    1.493   .     S
C945   C1086   1.347   1_455 A
C945   C946    1.493   .     S
C946   O1073   1.319   1_455 A
C947   C948    1.493   .     S
C949   C1078   1.347   1_455 A
C949   C950    1.493   .     S
C950   O1081   1.319   1_455 A
C951   C952    1.493   .     S
O953   Al985   1.919   .     S
O953   C994    1.319   .     A
C954   C1049   1.347   .     A
C954   C2534   1.379   1_545 A
O955   Al987   1.919   .     S
O955   C996    1.319   .     A
C956   C995    1.347   .     A
C956   C968    1.379   .     A
O957   Al986   1.919   .     S
O957   C1054   1.319   .     A
C958   C997    1.347   .     A
C958   C1858   1.379   .     A
O959   Al988   1.919   .     S
O959   C1000   1.319   .     A
C960   C999    1.347   .     A
C960   C1188   1.379   .     A
O961   Al987   1.919   .     S
O961   C1058   1.319   .     A
C962   C1001   1.347   .     A
O963   Al985   1.919   .     S
O963   C1004   1.319   .     A
C964   C1003   1.347   .     A
C964   C1632   1.379   1_545 A
O965   Al988   1.919   .     S
O965   C1006   1.319   .     A
C966   C1061   1.347   .     A
O967   Al986   1.919   .     S
O967   C1008   1.319   .     A
C968   C1007   1.347   .     A
O969   Al987   1.919   .     S
O969   C1062   1.319   .     A
C970   C1005   1.347   .     A
O971   Al985   1.919   .     S
O971   C1008   1.319   .     A
C972   C1007   1.347   .     A
C972   C984    1.379   .     A
O973   Al988   1.919   .     S
O973   C1002   1.319   .     A
C974   C1057   1.347   .     A
O975   Al986   1.919   .     S
O975   C1004   1.319   .     A
C976   C1003   1.347   .     A
C976   C1652   1.379   1_545 A
O977   Al985   1.919   .     S
O977   C998    1.319   .     A
C978   C1053   1.347   .     A
C978   C1870   1.379   .     A
O979   Al987   1.919   .     S
O979   C1000   1.319   .     A
C980   C999    1.347   .     A
C980   C1200   1.379   .     A
O981   Al986   1.919   .     S
O981   C1050   1.319   .     A
C982   C993    1.347   .     A
C982   C2538   1.379   1_545 A
O983   Al988   1.919   .     S
O983   C996    1.319   .     A
C984   C995    1.347   .     A
Al985  O989    1.806   .     S
Al985  O992    1.806   .     S
Al986  O1045   1.806   .     S
Al986  O992    1.806   .     S
Al987  O1047   1.806   .     S
Al987  O990    1.806   .     S
Al988  O991    1.806   .     S
Al988  O990    1.806   .     S
C993   C994    1.493   .     S
C995   C996    1.493   .     S
C997   C998    1.493   .     S
C999   C1000   1.493   .     S
C1001  C1002   1.493   .     S
C1003  C1004   1.493   .     S
C1005  C1006   1.493   .     S
C1007  C1008   1.493   .     S
O1009  Al1041  1.919   .     S
O1009  C1050   1.319   .     A
C1010  C1105   1.347   .     A
C1010  C2590   1.379   1_545 A
O1011  Al1043  1.919   .     S
O1011  C1052   1.319   .     A
C1012  C1051   1.347   .     A
C1012  C1024   1.379   .     A
O1013  Al1042  1.919   .     S
O1013  C1110   1.319   .     A
C1014  C1053   1.347   .     A
C1014  C1914   1.379   .     A
O1015  Al1044  1.919   .     S
O1015  C1056   1.319   .     A
C1016  C1055   1.347   .     A
C1016  C1244   1.379   .     A
O1017  Al1043  1.919   .     S
O1017  C1114   1.319   .     A
C1018  C1057   1.347   .     A
O1019  Al1041  1.919   .     S
O1019  C1060   1.319   .     A
C1020  C1059   1.347   .     A
C1020  C1688   1.379   1_545 A
O1021  Al1044  1.919   .     S
O1021  C1062   1.319   .     A
C1022  C1117   1.347   .     A
O1023  Al1042  1.919   .     S
O1023  C1064   1.319   .     A
C1024  C1063   1.347   .     A
O1025  Al1043  1.919   .     S
O1025  C1118   1.319   .     A
C1026  C1061   1.347   .     A
O1027  Al1041  1.919   .     S
O1027  C1064   1.319   .     A
C1028  C1063   1.347   .     A
C1028  C1040   1.379   .     A
O1029  Al1044  1.919   .     S
O1029  C1058   1.319   .     A
C1030  C1113   1.347   .     A
O1031  Al1042  1.919   .     S
O1031  C1060   1.319   .     A
C1032  C1059   1.347   .     A
C1032  C1708   1.379   1_545 A
O1033  Al1041  1.919   .     S
O1033  C1054   1.319   .     A
C1034  C1109   1.347   .     A
C1034  C1926   1.379   .     A
O1035  Al1043  1.919   .     S
O1035  C1056   1.319   .     A
C1036  C1055   1.347   .     A
C1036  C1256   1.379   .     A
O1037  Al1042  1.919   .     S
O1037  C1106   1.319   .     A
C1038  C1049   1.347   .     A
C1038  C2594   1.379   1_545 A
O1039  Al1044  1.919   .     S
O1039  C1052   1.319   .     A
C1040  C1051   1.347   .     A
Al1041 O1045   1.806   .     S
Al1041 O1048   1.806   .     S
Al1042 O1101   1.806   .     S
Al1042 O1048   1.806   .     S
Al1043 O1103   1.806   .     S
Al1043 O1046   1.806   .     S
Al1044 O1047   1.806   .     S
Al1044 O1046   1.806   .     S
C1049  C1050   1.493   .     S
C1051  C1052   1.493   .     S
C1053  C1054   1.493   .     S
C1055  C1056   1.493   .     S
C1057  C1058   1.493   .     S
C1059  C1060   1.493   .     S
C1061  C1062   1.493   .     S
C1063  C1064   1.493   .     S
O1065  Al1097  1.919   .     S
O1065  C1106   1.319   .     A
C1066  C937    1.347   1_655 A
C1066  C2646   1.379   1_545 A
O1067  Al1099  1.919   .     S
O1067  C1108   1.319   .     A
C1068  C1107   1.347   .     A
C1068  C1080   1.379   .     A
O1069  Al1098  1.919   .     S
O1069  C942    1.319   1_655 A
C1070  C1109   1.347   .     A
C1070  C1970   1.379   .     A
O1071  Al1100  1.919   .     S
O1071  C1112   1.319   .     A
C1072  C1111   1.347   .     A
C1072  C1300   1.379   .     A
O1073  Al1099  1.919   .     S
O1073  C946    1.319   1_655 A
C1074  C1113   1.347   .     A
O1075  Al1097  1.919   .     S
O1075  C1116   1.319   .     A
C1076  C1115   1.347   .     A
C1076  C1744   1.379   1_545 A
O1077  Al1100  1.919   .     S
O1077  C1118   1.319   .     A
C1078  C949    1.347   1_655 A
O1079  Al1098  1.919   .     S
O1079  C1120   1.319   .     A
C1080  C1119   1.347   .     A
O1081  Al1099  1.919   .     S
O1081  C950    1.319   1_655 A
C1082  C1117   1.347   .     A
O1083  Al1097  1.919   .     S
O1083  C1120   1.319   .     A
C1084  C1119   1.347   .     A
C1084  C1096   1.379   .     A
O1085  Al1100  1.919   .     S
O1085  C1114   1.319   .     A
C1086  C945    1.347   1_655 A
O1087  Al1098  1.919   .     S
O1087  C1116   1.319   .     A
C1088  C1115   1.347   .     A
C1088  C1764   1.379   1_545 A
O1089  Al1097  1.919   .     S
O1089  C1110   1.319   .     A
C1090  C941    1.347   1_655 A
C1090  C1982   1.379   .     A
O1091  Al1099  1.919   .     S
O1091  C1112   1.319   .     A
C1092  C1111   1.347   .     A
C1092  C1312   1.379   .     A
O1093  Al1098  1.919   .     S
O1093  C938    1.319   1_655 A
C1094  C1105   1.347   .     A
C1094  C2650   1.379   1_545 A
O1095  Al1100  1.919   .     S
O1095  C1108   1.319   .     A
C1096  C1107   1.347   .     A
Al1097 O1101   1.806   .     S
Al1097 O1104   1.806   .     S
Al1098 O933    1.806   1_655 S
Al1098 O1104   1.806   .     S
Al1099 O935    1.806   1_655 S
Al1099 O1102   1.806   .     S
Al1100 O1103   1.806   .     S
Al1100 O1102   1.806   .     S
C1105  C1106   1.493   .     S
C1107  C1108   1.493   .     S
C1109  C1110   1.493   .     S
C1111  C1112   1.493   .     S
C1113  C1114   1.493   .     S
C1115  C1116   1.493   .     S
C1117  C1118   1.493   .     S
C1119  C1120   1.493   .     S
O1121  Al1153  1.919   .     S
O1121  C1162   1.319   .     A
C1122  C1217   1.347   .     A
C1122  C1806   1.379   .     A
O1123  Al1155  1.919   .     S
O1123  C1164   1.319   .     A
C1124  C1163   1.347   .     A
C1124  C1136   1.379   .     A
O1125  Al1154  1.919   .     S
O1125  C1222   1.319   .     A
C1126  C1165   1.347   .     A
C1126  C2026   1.379   .     A
O1127  Al1156  1.919   .     S
O1127  C1168   1.319   .     A
C1128  C1167   1.347   .     A
C1128  C1356   1.379   .     A
O1129  Al1155  1.919   .     S
O1129  C1226   1.319   .     A
C1130  C1169   1.347   .     A
O1131  Al1153  1.919   .     S
O1131  C1172   1.319   .     A
C1132  C1171   1.347   .     A
O1133  Al1156  1.919   .     S
O1133  C1174   1.319   .     A
C1134  C1229   1.347   .     A
O1135  Al1154  1.919   .     S
O1135  C1176   1.319   .     A
C1136  C1175   1.347   .     A
O1137  Al1155  1.919   .     S
O1137  C1230   1.319   .     A
C1138  C1173   1.347   .     A
O1139  Al1153  1.919   .     S
O1139  C1176   1.319   .     A
C1140  C1175   1.347   .     A
C1140  C1152   1.379   .     A
O1141  Al1156  1.919   .     S
O1141  C1170   1.319   .     A
C1142  C1225   1.347   .     A
O1143  Al1154  1.919   .     S
O1143  C1172   1.319   .     A
C1144  C1171   1.347   .     A
O1145  Al1153  1.919   .     S
O1145  C1166   1.319   .     A
C1146  C1221   1.347   .     A
C1146  C2038   1.379   .     A
O1147  Al1155  1.919   .     S
O1147  C1168   1.319   .     A
C1148  C1167   1.347   .     A
C1148  C1368   1.379   .     A
O1149  Al1154  1.919   .     S
O1149  C1218   1.319   .     A
C1150  C1161   1.347   .     A
C1150  C1810   1.379   .     A
O1151  Al1156  1.919   .     S
O1151  C1164   1.319   .     A
C1152  C1163   1.347   .     A
Al1153 O1157   1.806   .     S
Al1153 O1160   1.806   .     S
Al1154 O1213   1.806   .     S
Al1154 O1160   1.806   .     S
Al1155 O1215   1.806   .     S
Al1155 O1158   1.806   .     S
Al1156 O1159   1.806   .     S
Al1156 O1158   1.806   .     S
O1157  Al1322  1.806   1_455 S
O1159  Al1323  1.806   1_455 S
C1161  C1290   1.347   1_455 A
C1161  C1162   1.493   .     S
C1162  O1317   1.319   1_455 A
C1163  C1164   1.493   .     S
C1165  C1314   1.347   1_455 A
C1165  C1166   1.493   .     S
C1166  O1293   1.319   1_455 A
C1167  C1168   1.493   .     S
C1169  C1310   1.347   1_455 A
C1169  C1170   1.493   .     S
C1170  O1297   1.319   1_455 A
C1171  C1172   1.493   .     S
C1173  C1302   1.347   1_455 A
C1173  C1174   1.493   .     S
C1174  O1305   1.319   1_455 A
C1175  C1176   1.493   .     S
O1177  Al1209  1.919   .     S
O1177  C1218   1.319   .     A
C1178  C1273   1.347   .     A
C1178  C1862   1.379   .     A
O1179  Al1211  1.919   .     S
O1179  C1220   1.319   .     A
C1180  C1219   1.347   .     A
C1180  C1192   1.379   .     A
O1181  Al1210  1.919   .     S
O1181  C1278   1.319   .     A
C1182  C1221   1.347   .     A
C1182  C2082   1.379   .     A
O1183  Al1212  1.919   .     S
O1183  C1224   1.319   .     A
C1184  C1223   1.347   .     A
C1184  C1412   1.379   .     A
O1185  Al1211  1.919   .     S
O1185  C1282   1.319   .     A
C1186  C1225   1.347   .     A
O1187  Al1209  1.919   .     S
O1187  C1228   1.319   .     A
C1188  C1227   1.347   .     A
O1189  Al1212  1.919   .     S
O1189  C1230   1.319   .     A
C1190  C1285   1.347   .     A
O1191  Al1210  1.919   .     S
O1191  C1232   1.319   .     A
C1192  C1231   1.347   .     A
O1193  Al1211  1.919   .     S
O1193  C1286   1.319   .     A
C1194  C1229   1.347   .     A
O1195  Al1209  1.919   .     S
O1195  C1232   1.319   .     A
C1196  C1231   1.347   .     A
C1196  C1208   1.379   .     A
O1197  Al1212  1.919   .     S
O1197  C1226   1.319   .     A
C1198  C1281   1.347   .     A
O1199  Al1210  1.919   .     S
O1199  C1228   1.319   .     A
C1200  C1227   1.347   .     A
O1201  Al1209  1.919   .     S
O1201  C1222   1.319   .     A
C1202  C1277   1.347   .     A
C1202  C2094   1.379   .     A
O1203  Al1211  1.919   .     S
O1203  C1224   1.319   .     A
C1204  C1223   1.347   .     A
C1204  C1424   1.379   .     A
O1205  Al1210  1.919   .     S
O1205  C1274   1.319   .     A
C1206  C1217   1.347   .     A
C1206  C1866   1.379   .     A
O1207  Al1212  1.919   .     S
O1207  C1220   1.319   .     A
C1208  C1219   1.347   .     A
Al1209 O1213   1.806   .     S
Al1209 O1216   1.806   .     S
Al1210 O1269   1.806   .     S
Al1210 O1216   1.806   .     S
Al1211 O1271   1.806   .     S
Al1211 O1214   1.806   .     S
Al1212 O1215   1.806   .     S
Al1212 O1214   1.806   .     S
C1217  C1218   1.493   .     S
C1219  C1220   1.493   .     S
C1221  C1222   1.493   .     S
C1223  C1224   1.493   .     S
C1225  C1226   1.493   .     S
C1227  C1228   1.493   .     S
C1229  C1230   1.493   .     S
C1231  C1232   1.493   .     S
O1233  Al1265  1.919   .     S
O1233  C1274   1.319   .     A
C1234  C1329   1.347   .     A
C1234  C1918   1.379   .     A
O1235  Al1267  1.919   .     S
O1235  C1276   1.319   .     A
C1236  C1275   1.347   .     A
C1236  C1248   1.379   .     A
O1237  Al1266  1.919   .     S
O1237  C1334   1.319   .     A
C1238  C1277   1.347   .     A
C1238  C2138   1.379   .     A
O1239  Al1268  1.919   .     S
O1239  C1280   1.319   .     A
C1240  C1279   1.347   .     A
C1240  C1468   1.379   .     A
O1241  Al1267  1.919   .     S
O1241  C1338   1.319   .     A
C1242  C1281   1.347   .     A
O1243  Al1265  1.919   .     S
O1243  C1284   1.319   .     A
C1244  C1283   1.347   .     A
O1245  Al1268  1.919   .     S
O1245  C1286   1.319   .     A
C1246  C1341   1.347   .     A
O1247  Al1266  1.919   .     S
O1247  C1288   1.319   .     A
C1248  C1287   1.347   .     A
O1249  Al1267  1.919   .     S
O1249  C1342   1.319   .     A
C1250  C1285   1.347   .     A
O1251  Al1265  1.919   .     S
O1251  C1288   1.319   .     A
C1252  C1287   1.347   .     A
C1252  C1264   1.379   .     A
O1253  Al1268  1.919   .     S
O1253  C1282   1.319   .     A
C1254  C1337   1.347   .     A
O1255  Al1266  1.919   .     S
O1255  C1284   1.319   .     A
C1256  C1283   1.347   .     A
O1257  Al1265  1.919   .     S
O1257  C1278   1.319   .     A
C1258  C1333   1.347   .     A
C1258  C2150   1.379   .     A
O1259  Al1267  1.919   .     S
O1259  C1280   1.319   .     A
C1260  C1279   1.347   .     A
C1260  C1480   1.379   .     A
O1261  Al1266  1.919   .     S
O1261  C1330   1.319   .     A
C1262  C1273   1.347   .     A
C1262  C1922   1.379   .     A
O1263  Al1268  1.919   .     S
O1263  C1276   1.319   .     A
C1264  C1275   1.347   .     A
Al1265 O1269   1.806   .     S
Al1265 O1272   1.806   .     S
Al1266 O1325   1.806   .     S
Al1266 O1272   1.806   .     S
Al1267 O1327   1.806   .     S
Al1267 O1270   1.806   .     S
Al1268 O1271   1.806   .     S
Al1268 O1270   1.806   .     S
C1273  C1274   1.493   .     S
C1275  C1276   1.493   .     S
C1277  C1278   1.493   .     S
C1279  C1280   1.493   .     S
C1281  C1282   1.493   .     S
C1283  C1284   1.493   .     S
C1285  C1286   1.493   .     S
C1287  C1288   1.493   .     S
O1289  Al1321  1.919   .     S
O1289  C1330   1.319   .     A
C1290  C1161   1.347   1_655 A
C1290  C1974   1.379   .     A
O1291  Al1323  1.919   .     S
O1291  C1332   1.319   .     A
C1292  C1331   1.347   .     A
C1292  C1304   1.379   .     A
O1293  Al1322  1.919   .     S
O1293  C1166   1.319   1_655 A
C1294  C1333   1.347   .     A
C1294  C2194   1.379   .     A
O1295  Al1324  1.919   .     S
O1295  C1336   1.319   .     A
C1296  C1335   1.347   .     A
C1296  C1524   1.379   .     A
O1297  Al1323  1.919   .     S
O1297  C1170   1.319   1_655 A
C1298  C1337   1.347   .     A
O1299  Al1321  1.919   .     S
O1299  C1340   1.319   .     A
C1300  C1339   1.347   .     A
O1301  Al1324  1.919   .     S
O1301  C1342   1.319   .     A
C1302  C1173   1.347   1_655 A
O1303  Al1322  1.919   .     S
O1303  C1344   1.319   .     A
C1304  C1343   1.347   .     A
O1305  Al1323  1.919   .     S
O1305  C1174   1.319   1_655 A
C1306  C1341   1.347   .     A
O1307  Al1321  1.919   .     S
O1307  C1344   1.319   .     A
C1308  C1343   1.347   .     A
C1308  C1320   1.379   .     A
O1309  Al1324  1.919   .     S
O1309  C1338   1.319   .     A
C1310  C1169   1.347   1_655 A
O1311  Al1322  1.919   .     S
O1311  C1340   1.319   .     A
C1312  C1339   1.347   .     A
O1313  Al1321  1.919   .     S
O1313  C1334   1.319   .     A
C1314  C1165   1.347   1_655 A
C1314  C2206   1.379   .     A
O1315  Al1323  1.919   .     S
O1315  C1336   1.319   .     A
C1316  C1335   1.347   .     A
C1316  C1536   1.379   .     A
O1317  Al1322  1.919   .     S
O1317  C1162   1.319   1_655 A
C1318  C1329   1.347   .     A
C1318  C1978   1.379   .     A
O1319  Al1324  1.919   .     S
O1319  C1332   1.319   .     A
C1320  C1331   1.347   .     A
Al1321 O1325   1.806   .     S
Al1321 O1328   1.806   .     S
Al1322 O1157   1.806   1_655 S
Al1322 O1328   1.806   .     S
Al1323 O1159   1.806   1_655 S
Al1323 O1326   1.806   .     S
Al1324 O1327   1.806   .     S
Al1324 O1326   1.806   .     S
C1329  C1330   1.493   .     S
C1331  C1332   1.493   .     S
C1333  C1334   1.493   .     S
C1335  C1336   1.493   .     S
C1337  C1338   1.493   .     S
C1339  C1340   1.493   .     S
C1341  C1342   1.493   .     S
C1343  C1344   1.493   .     S
O1345  Al1377  1.919   .     S
O1345  C1386   1.319   .     A
C1346  C1441   1.347   .     A
C1346  C2030   1.379   .     A
O1347  Al1379  1.919   .     S
O1347  C1388   1.319   .     A
C1348  C1387   1.347   .     A
C1348  C1360   1.379   .     A
O1349  Al1378  1.919   .     S
O1349  C1446   1.319   .     A
C1350  C1389   1.347   .     A
C1350  C2250   1.379   .     A
O1351  Al1380  1.919   .     S
O1351  C1392   1.319   .     A
C1352  C1391   1.347   .     A
C1352  C1580   1.379   .     A
O1353  Al1379  1.919   .     S
O1353  C1450   1.319   .     A
C1354  C1393   1.347   .     A
O1355  Al1377  1.919   .     S
O1355  C1396   1.319   .     A
C1356  C1395   1.347   .     A
O1357  Al1380  1.919   .     S
O1357  C1398   1.319   .     A
C1358  C1453   1.347   .     A
O1359  Al1378  1.919   .     S
O1359  C1400   1.319   .     A
C1360  C1399   1.347   .     A
O1361  Al1379  1.919   .     S
O1361  C1454   1.319   .     A
C1362  C1397   1.347   .     A
O1363  Al1377  1.919   .     S
O1363  C1400   1.319   .     A
C1364  C1399   1.347   .     A
C1364  C1376   1.379   .     A
O1365  Al1380  1.919   .     S
O1365  C1394   1.319   .     A
C1366  C1449   1.347   .     A
O1367  Al1378  1.919   .     S
O1367  C1396   1.319   .     A
C1368  C1395   1.347   .     A
O1369  Al1377  1.919   .     S
O1369  C1390   1.319   .     A
C1370  C1445   1.347   .     A
C1370  C2262   1.379   .     A
O1371  Al1379  1.919   .     S
O1371  C1392   1.319   .     A
C1372  C1391   1.347   .     A
C1372  C1592   1.379   .     A
O1373  Al1378  1.919   .     S
O1373  C1442   1.319   .     A
C1374  C1385   1.347   .     A
C1374  C2034   1.379   .     A
O1375  Al1380  1.919   .     S
O1375  C1388   1.319   .     A
C1376  C1387   1.347   .     A
Al1377 O1381   1.806   .     S
Al1377 O1384   1.806   .     S
Al1378 O1437   1.806   .     S
Al1378 O1384   1.806   .     S
Al1379 O1439   1.806   .     S
Al1379 O1382   1.806   .     S
Al1380 O1383   1.806   .     S
Al1380 O1382   1.806   .     S
O1381  Al1546  1.806   1_455 S
O1383  Al1547  1.806   1_455 S
C1385  C1514   1.347   1_455 A
C1385  C1386   1.493   .     S
C1386  O1541   1.319   1_455 A
C1387  C1388   1.493   .     S
C1389  C1538   1.347   1_455 A
C1389  C1390   1.493   .     S
C1390  O1517   1.319   1_455 A
C1391  C1392   1.493   .     S
C1393  C1534   1.347   1_455 A
C1393  C1394   1.493   .     S
C1394  O1521   1.319   1_455 A
C1395  C1396   1.493   .     S
C1397  C1526   1.347   1_455 A
C1397  C1398   1.493   .     S
C1398  O1529   1.319   1_455 A
C1399  C1400   1.493   .     S
O1401  Al1433  1.919   .     S
O1401  C1442   1.319   .     A
C1402  C1497   1.347   .     A
C1402  C2086   1.379   .     A
O1403  Al1435  1.919   .     S
O1403  C1444   1.319   .     A
C1404  C1443   1.347   .     A
C1404  C1416   1.379   .     A
O1405  Al1434  1.919   .     S
O1405  C1502   1.319   .     A
C1406  C1445   1.347   .     A
C1406  C2306   1.379   .     A
O1407  Al1436  1.919   .     S
O1407  C1448   1.319   .     A
C1408  C1447   1.347   .     A
C1408  C1636   1.379   .     A
O1409  Al1435  1.919   .     S
O1409  C1506   1.319   .     A
C1410  C1449   1.347   .     A
O1411  Al1433  1.919   .     S
O1411  C1452   1.319   .     A
C1412  C1451   1.347   .     A
O1413  Al1436  1.919   .     S
O1413  C1454   1.319   .     A
C1414  C1509   1.347   .     A
O1415  Al1434  1.919   .     S
O1415  C1456   1.319   .     A
C1416  C1455   1.347   .     A
O1417  Al1435  1.919   .     S
O1417  C1510   1.319   .     A
C1418  C1453   1.347   .     A
O1419  Al1433  1.919   .     S
O1419  C1456   1.319   .     A
C1420  C1455   1.347   .     A
C1420  C1432   1.379   .     A
O1421  Al1436  1.919   .     S
O1421  C1450   1.319   .     A
C1422  C1505   1.347   .     A
O1423  Al1434  1.919   .     S
O1423  C1452   1.319   .     A
C1424  C1451   1.347   .     A
O1425  Al1433  1.919   .     S
O1425  C1446   1.319   .     A
C1426  C1501   1.347   .     A
C1426  C2318   1.379   .     A
O1427  Al1435  1.919   .     S
O1427  C1448   1.319   .     A
C1428  C1447   1.347   .     A
C1428  C1648   1.379   .     A
O1429  Al1434  1.919   .     S
O1429  C1498   1.319   .     A
C1430  C1441   1.347   .     A
C1430  C2090   1.379   .     A
O1431  Al1436  1.919   .     S
O1431  C1444   1.319   .     A
C1432  C1443   1.347   .     A
Al1433 O1437   1.806   .     S
Al1433 O1440   1.806   .     S
Al1434 O1493   1.806   .     S
Al1434 O1440   1.806   .     S
Al1435 O1495   1.806   .     S
Al1435 O1438   1.806   .     S
Al1436 O1439   1.806   .     S
Al1436 O1438   1.806   .     S
C1441  C1442   1.493   .     S
C1443  C1444   1.493   .     S
C1445  C1446   1.493   .     S
C1447  C1448   1.493   .     S
C1449  C1450   1.493   .     S
C1451  C1452   1.493   .     S
C1453  C1454   1.493   .     S
C1455  C1456   1.493   .     S
O1457  Al1489  1.919   .     S
O1457  C1498   1.319   .     A
C1458  C1553   1.347   .     A
C1458  C2142   1.379   .     A
O1459  Al1491  1.919   .     S
O1459  C1500   1.319   .     A
C1460  C1499   1.347   .     A
C1460  C1472   1.379   .     A
O1461  Al1490  1.919   .     S
O1461  C1558   1.319   .     A
C1462  C1501   1.347   .     A
C1462  C2362   1.379   .     A
O1463  Al1492  1.919   .     S
O1463  C1504   1.319   .     A
C1464  C1503   1.347   .     A
C1464  C1692   1.379   .     A
O1465  Al1491  1.919   .     S
O1465  C1562   1.319   .     A
C1466  C1505   1.347   .     A
O1467  Al1489  1.919   .     S
O1467  C1508   1.319   .     A
C1468  C1507   1.347   .     A
O1469  Al1492  1.919   .     S
O1469  C1510   1.319   .     A
C1470  C1565   1.347   .     A
O1471  Al1490  1.919   .     S
O1471  C1512   1.319   .     A
C1472  C1511   1.347   .     A
O1473  Al1491  1.919   .     S
O1473  C1566   1.319   .     A
C1474  C1509   1.347   .     A
O1475  Al1489  1.919   .     S
O1475  C1512   1.319   .     A
C1476  C1511   1.347   .     A
C1476  C1488   1.379   .     A
O1477  Al1492  1.919   .     S
O1477  C1506   1.319   .     A
C1478  C1561   1.347   .     A
O1479  Al1490  1.919   .     S
O1479  C1508   1.319   .     A
C1480  C1507   1.347   .     A
O1481  Al1489  1.919   .     S
O1481  C1502   1.319   .     A
C1482  C1557   1.347   .     A
C1482  C2374   1.379   .     A
O1483  Al1491  1.919   .     S
O1483  C1504   1.319   .     A
C1484  C1503   1.347   .     A
C1484  C1704   1.379   .     A
O1485  Al1490  1.919   .     S
O1485  C1554   1.319   .     A
C1486  C1497   1.347   .     A
C1486  C2146   1.379   .     A
O1487  Al1492  1.919   .     S
O1487  C1500   1.319   .     A
C1488  C1499   1.347   .     A
Al1489 O1493   1.806   .     S
Al1489 O1496   1.806   .     S
Al1490 O1549   1.806   .     S
Al1490 O1496   1.806   .     S
Al1491 O1551   1.806   .     S
Al1491 O1494   1.806   .     S
Al1492 O1495   1.806   .     S
Al1492 O1494   1.806   .     S
C1497  C1498   1.493   .     S
C1499  C1500   1.493   .     S
C1501  C1502   1.493   .     S
C1503  C1504   1.493   .     S
C1505  C1506   1.493   .     S
C1507  C1508   1.493   .     S
C1509  C1510   1.493   .     S
C1511  C1512   1.493   .     S
O1513  Al1545  1.919   .     S
O1513  C1554   1.319   .     A
C1514  C1385   1.347   1_655 A
C1514  C2198   1.379   .     A
O1515  Al1547  1.919   .     S
O1515  C1556   1.319   .     A
C1516  C1555   1.347   .     A
C1516  C1528   1.379   .     A
O1517  Al1546  1.919   .     S
O1517  C1390   1.319   1_655 A
C1518  C1557   1.347   .     A
C1518  C2418   1.379   .     A
O1519  Al1548  1.919   .     S
O1519  C1560   1.319   .     A
C1520  C1559   1.347   .     A
C1520  C1748   1.379   .     A
O1521  Al1547  1.919   .     S
O1521  C1394   1.319   1_655 A
C1522  C1561   1.347   .     A
O1523  Al1545  1.919   .     S
O1523  C1564   1.319   .     A
C1524  C1563   1.347   .     A
O1525  Al1548  1.919   .     S
O1525  C1566   1.319   .     A
C1526  C1397   1.347   1_655 A
O1527  Al1546  1.919   .     S
O1527  C1568   1.319   .     A
C1528  C1567   1.347   .     A
O1529  Al1547  1.919   .     S
O1529  C1398   1.319   1_655 A
C1530  C1565   1.347   .     A
O1531  Al1545  1.919   .     S
O1531  C1568   1.319   .     A
C1532  C1567   1.347   .     A
C1532  C1544   1.379   .     A
O1533  Al1548  1.919   .     S
O1533  C1562   1.319   .     A
C1534  C1393   1.347   1_655 A
O1535  Al1546  1.919   .     S
O1535  C1564   1.319   .     A
C1536  C1563   1.347   .     A
O1537  Al1545  1.919   .     S
O1537  C1558   1.319   .     A
C1538  C1389   1.347   1_655 A
C1538  C2430   1.379   .     A
O1539  Al1547  1.919   .     S
O1539  C1560   1.319   .     A
C1540  C1559   1.347   .     A
C1540  C1760   1.379   .     A
O1541  Al1546  1.919   .     S
O1541  C1386   1.319   1_655 A
C1542  C1553   1.347   .     A
C1542  C2202   1.379   .     A
O1543  Al1548  1.919   .     S
O1543  C1556   1.319   .     A
C1544  C1555   1.347   .     A
Al1545 O1549   1.806   .     S
Al1545 O1552   1.806   .     S
Al1546 O1381   1.806   1_655 S
Al1546 O1552   1.806   .     S
Al1547 O1383   1.806   1_655 S
Al1547 O1550   1.806   .     S
Al1548 O1551   1.806   .     S
Al1548 O1550   1.806   .     S
C1553  C1554   1.493   .     S
C1555  C1556   1.493   .     S
C1557  C1558   1.493   .     S
C1559  C1560   1.493   .     S
C1561  C1562   1.493   .     S
C1563  C1564   1.493   .     S
C1565  C1566   1.493   .     S
C1567  C1568   1.493   .     S
O1569  Al1601  1.919   .     S
O1569  C1610   1.319   .     A
C1570  C1665   1.347   .     A
C1570  C2254   1.379   .     A
O1571  Al1603  1.919   .     S
O1571  C1612   1.319   .     A
C1572  C1611   1.347   .     A
C1572  C1584   1.379   .     A
O1573  Al1602  1.919   .     S
O1573  C1670   1.319   .     A
C1574  C1613   1.347   .     A
C1574  C2474   1.379   .     A
O1575  Al1604  1.919   .     S
O1575  C1616   1.319   .     A
C1576  C1615   1.347   .     A
C1576  C908    1.379   1_565 A
O1577  Al1603  1.919   .     S
O1577  C1674   1.319   .     A
C1578  C1617   1.347   .     A
O1579  Al1601  1.919   .     S
O1579  C1620   1.319   .     A
C1580  C1619   1.347   .     A
O1581  Al1604  1.919   .     S
O1581  C1622   1.319   .     A
C1582  C1677   1.347   .     A
C1582  C2      1.379   1_565 A
O1583  Al1602  1.919   .     S
O1583  C1624   1.319   .     A
C1584  C1623   1.347   .     A
O1585  Al1603  1.919   .     S
O1585  C1678   1.319   .     A
C1586  C1621   1.347   .     A
C1586  C30     1.379   1_565 A
O1587  Al1601  1.919   .     S
O1587  C1624   1.319   .     A
C1588  C1623   1.347   .     A
C1588  C1600   1.379   .     A
O1589  Al1604  1.919   .     S
O1589  C1618   1.319   .     A
C1590  C1673   1.347   .     A
O1591  Al1602  1.919   .     S
O1591  C1620   1.319   .     A
C1592  C1619   1.347   .     A
O1593  Al1601  1.919   .     S
O1593  C1614   1.319   .     A
C1594  C1669   1.347   .     A
C1594  C2486   1.379   .     A
O1595  Al1603  1.919   .     S
O1595  C1616   1.319   .     A
C1596  C1615   1.347   .     A
C1596  C920    1.379   1_565 A
O1597  Al1602  1.919   .     S
O1597  C1666   1.319   .     A
C1598  C1609   1.347   .     A
C1598  C2258   1.379   .     A
O1599  Al1604  1.919   .     S
O1599  C1612   1.319   .     A
C1600  C1611   1.347   .     A
Al1601 O1605   1.806   .     S
Al1601 O1608   1.806   .     S
Al1602 O1661   1.806   .     S
Al1602 O1608   1.806   .     S
Al1603 O1663   1.806   .     S
Al1603 O1606   1.806   .     S
Al1604 O1607   1.806   .     S
Al1604 O1606   1.806   .     S
O1605  Al1770  1.806   1_455 S
O1607  Al1771  1.806   1_455 S
C1609  C1738   1.347   1_455 A
C1609  C1610   1.493   .     S
C1610  O1765   1.319   1_455 A
C1611  C1612   1.493   .     S
C1613  C1762   1.347   1_455 A
C1613  C1614   1.493   .     S
C1614  O1741   1.319   1_455 A
C1615  C1616   1.493   .     S
C1617  C1758   1.347   1_455 A
C1617  C1618   1.493   .     S
C1618  O1745   1.319   1_455 A
C1619  C1620   1.493   .     S
C1621  C1750   1.347   1_455 A
C1621  C1622   1.493   .     S
C1622  O1753   1.319   1_455 A
C1623  C1624   1.493   .     S
O1625  Al1657  1.919   .     S
O1625  C1666   1.319   .     A
C1626  C1721   1.347   .     A
C1626  C2310   1.379   .     A
O1627  Al1659  1.919   .     S
O1627  C1668   1.319   .     A
C1628  C1667   1.347   .     A
C1628  C1640   1.379   .     A
O1629  Al1658  1.919   .     S
O1629  C1726   1.319   .     A
C1630  C1669   1.347   .     A
C1630  C2530   1.379   .     A
O1631  Al1660  1.919   .     S
O1631  C1672   1.319   .     A
C1632  C1671   1.347   .     A
C1632  C964    1.379   1_565 A
O1633  Al1659  1.919   .     S
O1633  C1730   1.319   .     A
C1634  C1673   1.347   .     A
O1635  Al1657  1.919   .     S
O1635  C1676   1.319   .     A
C1636  C1675   1.347   .     A
O1637  Al1660  1.919   .     S
O1637  C1678   1.319   .     A
C1638  C1733   1.347   .     A
C1638  C58     1.379   1_565 A
O1639  Al1658  1.919   .     S
O1639  C1680   1.319   .     A
C1640  C1679   1.347   .     A
O1641  Al1659  1.919   .     S
O1641  C1734   1.319   .     A
C1642  C1677   1.347   .     A
C1642  C86     1.379   1_565 A
O1643  Al1657  1.919   .     S
O1643  C1680   1.319   .     A
C1644  C1679   1.347   .     A
C1644  C1656   1.379   .     A
O1645  Al1660  1.919   .     S
O1645  C1674   1.319   .     A
C1646  C1729   1.347   .     A
O1647  Al1658  1.919   .     S
O1647  C1676   1.319   .     A
C1648  C1675   1.347   .     A
O1649  Al1657  1.919   .     S
O1649  C1670   1.319   .     A
C1650  C1725   1.347   .     A
C1650  C2542   1.379   .     A
O1651  Al1659  1.919   .     S
O1651  C1672   1.319   .     A
C1652  C1671   1.347   .     A
C1652  C976    1.379   1_565 A
O1653  Al1658  1.919   .     S
O1653  C1722   1.319   .     A
C1654  C1665   1.347   .     A
C1654  C2314   1.379   .     A
O1655  Al1660  1.919   .     S
O1655  C1668   1.319   .     A
C1656  C1667   1.347   .     A
Al1657 O1661   1.806   .     S
Al1657 O1664   1.806   .     S
Al1658 O1717   1.806   .     S
Al1658 O1664   1.806   .     S
Al1659 O1719   1.806   .     S
Al1659 O1662   1.806   .     S
Al1660 O1663   1.806   .     S
Al1660 O1662   1.806   .     S
C1665  C1666   1.493   .     S
C1667  C1668   1.493   .     S
C1669  C1670   1.493   .     S
C1671  C1672   1.493   .     S
C1673  C1674   1.493   .     S
C1675  C1676   1.493   .     S
C1677  C1678   1.493   .     S
C1679  C1680   1.493   .     S
O1681  Al1713  1.919   .     S
O1681  C1722   1.319   .     A
C1682  C1777   1.347   .     A
C1682  C2366   1.379   .     A
O1683  Al1715  1.919   .     S
O1683  C1724   1.319   .     A
C1684  C1723   1.347   .     A
C1684  C1696   1.379   .     A
O1685  Al1714  1.919   .     S
O1685  C1782   1.319   .     A
C1686  C1725   1.347   .     A
C1686  C2586   1.379   .     A
O1687  Al1716  1.919   .     S
O1687  C1728   1.319   .     A
C1688  C1727   1.347   .     A
C1688  C1020   1.379   1_565 A
O1689  Al1715  1.919   .     S
O1689  C1786   1.319   .     A
C1690  C1729   1.347   .     A
O1691  Al1713  1.919   .     S
O1691  C1732   1.319   .     A
C1692  C1731   1.347   .     A
O1693  Al1716  1.919   .     S
O1693  C1734   1.319   .     A
C1694  C1789   1.347   .     A
C1694  C114    1.379   1_565 A
O1695  Al1714  1.919   .     S
O1695  C1736   1.319   .     A
C1696  C1735   1.347   .     A
O1697  Al1715  1.919   .     S
O1697  C1790   1.319   .     A
C1698  C1733   1.347   .     A
C1698  C142    1.379   1_565 A
O1699  Al1713  1.919   .     S
O1699  C1736   1.319   .     A
C1700  C1735   1.347   .     A
C1700  C1712   1.379   .     A
O1701  Al1716  1.919   .     S
O1701  C1730   1.319   .     A
C1702  C1785   1.347   .     A
O1703  Al1714  1.919   .     S
O1703  C1732   1.319   .     A
C1704  C1731   1.347   .     A
O1705  Al1713  1.919   .     S
O1705  C1726   1.319   .     A
C1706  C1781   1.347   .     A
C1706  C2598   1.379   .     A
O1707  Al1715  1.919   .     S
O1707  C1728   1.319   .     A
C1708  C1727   1.347   .     A
C1708  C1032   1.379   1_565 A
O1709  Al1714  1.919   .     S
O1709  C1778   1.319   .     A
C1710  C1721   1.347   .     A
C1710  C2370   1.379   .     A
O1711  Al1716  1.919   .     S
O1711  C1724   1.319   .     A
C1712  C1723   1.347   .     A
Al1713 O1717   1.806   .     S
Al1713 O1720   1.806   .     S
Al1714 O1773   1.806   .     S
Al1714 O1720   1.806   .     S
Al1715 O1775   1.806   .     S
Al1715 O1718   1.806   .     S
Al1716 O1719   1.806   .     S
Al1716 O1718   1.806   .     S
C1721  C1722   1.493   .     S
C1723  C1724   1.493   .     S
C1725  C1726   1.493   .     S
C1727  C1728   1.493   .     S
C1729  C1730   1.493   .     S
C1731  C1732   1.493   .     S
C1733  C1734   1.493   .     S
C1735  C1736   1.493   .     S
O1737  Al1769  1.919   .     S
O1737  C1778   1.319   .     A
C1738  C1609   1.347   1_655 A
C1738  C2422   1.379   .     A
O1739  Al1771  1.919   .     S
O1739  C1780   1.319   .     A
C1740  C1779   1.347   .     A
C1740  C1752   1.379   .     A
O1741  Al1770  1.919   .     S
O1741  C1614   1.319   1_655 A
C1742  C1781   1.347   .     A
C1742  C2642   1.379   .     A
O1743  Al1772  1.919   .     S
O1743  C1784   1.319   .     A
C1744  C1783   1.347   .     A
C1744  C1076   1.379   1_565 A
O1745  Al1771  1.919   .     S
O1745  C1618   1.319   1_655 A
C1746  C1785   1.347   .     A
O1747  Al1769  1.919   .     S
O1747  C1788   1.319   .     A
C1748  C1787   1.347   .     A
O1749  Al1772  1.919   .     S
O1749  C1790   1.319   .     A
C1750  C1621   1.347   1_655 A
C1750  C170    1.379   1_565 A
O1751  Al1770  1.919   .     S
O1751  C1792   1.319   .     A
C1752  C1791   1.347   .     A
O1753  Al1771  1.919   .     S
O1753  C1622   1.319   1_655 A
C1754  C1789   1.347   .     A
C1754  C198    1.379   1_565 A
O1755  Al1769  1.919   .     S
O1755  C1792   1.319   .     A
C1756  C1791   1.347   .     A
C1756  C1768   1.379   .     A
O1757  Al1772  1.919   .     S
O1757  C1786   1.319   .     A
C1758  C1617   1.347   1_655 A
O1759  Al1770  1.919   .     S
O1759  C1788   1.319   .     A
C1760  C1787   1.347   .     A
O1761  Al1769  1.919   .     S
O1761  C1782   1.319   .     A
C1762  C1613   1.347   1_655 A
C1762  C2654   1.379   .     A
O1763  Al1771  1.919   .     S
O1763  C1784   1.319   .     A
C1764  C1783   1.347   .     A
C1764  C1088   1.379   1_565 A
O1765  Al1770  1.919   .     S
O1765  C1610   1.319   1_655 A
C1766  C1777   1.347   .     A
C1766  C2426   1.379   .     A
O1767  Al1772  1.919   .     S
O1767  C1780   1.319   .     A
C1768  C1779   1.347   .     A
Al1769 O1773   1.806   .     S
Al1769 O1776   1.806   .     S
Al1770 O1605   1.806   1_655 S
Al1770 O1776   1.806   .     S
Al1771 O1607   1.806   1_655 S
Al1771 O1774   1.806   .     S
Al1772 O1775   1.806   .     S
Al1772 O1774   1.806   .     S
C1777  C1778   1.493   .     S
C1779  C1780   1.493   .     S
C1781  C1782   1.493   .     S
C1783  C1784   1.493   .     S
C1785  C1786   1.493   .     S
C1787  C1788   1.493   .     S
C1789  C1790   1.493   .     S
C1791  C1792   1.493   .     S
O1793  Al1825  1.919   .     S
O1793  C1834   1.319   .     A
C1794  C1889   1.347   .     A
C1794  C3374   1.379   1_545 A
O1795  Al1827  1.919   .     S
O1795  C1836   1.319   .     A
C1796  C1835   1.347   .     A
C1796  C1808   1.379   .     A
O1797  Al1826  1.919   .     S
O1797  C1894   1.319   .     A
C1798  C1837   1.347   .     A
C1798  C2698   1.379   .     A
O1799  Al1828  1.919   .     S
O1799  C1840   1.319   .     A
C1800  C1839   1.347   .     A
C1800  C2028   1.379   .     A
O1801  Al1827  1.919   .     S
O1801  C1898   1.319   .     A
C1802  C1841   1.347   .     A
O1803  Al1825  1.919   .     S
O1803  C1844   1.319   .     A
C1804  C1843   1.347   .     A
C1804  C2472   1.379   1_545 A
O1805  Al1828  1.919   .     S
O1805  C1846   1.319   .     A
C1806  C1901   1.347   .     A
O1807  Al1826  1.919   .     S
O1807  C1848   1.319   .     A
C1808  C1847   1.347   .     A
O1809  Al1827  1.919   .     S
O1809  C1902   1.319   .     A
C1810  C1845   1.347   .     A
O1811  Al1825  1.919   .     S
O1811  C1848   1.319   .     A
C1812  C1847   1.347   .     A
C1812  C1824   1.379   .     A
O1813  Al1828  1.919   .     S
O1813  C1842   1.319   .     A
C1814  C1897   1.347   .     A
O1815  Al1826  1.919   .     S
O1815  C1844   1.319   .     A
C1816  C1843   1.347   .     A
C1816  C2492   1.379   1_545 A
O1817  Al1825  1.919   .     S
O1817  C1838   1.319   .     A
C1818  C1893   1.347   .     A
C1818  C2710   1.379   .     A
O1819  Al1827  1.919   .     S
O1819  C1840   1.319   .     A
C1820  C1839   1.347   .     A
C1820  C2040   1.379   .     A
O1821  Al1826  1.919   .     S
O1821  C1890   1.319   .     A
C1822  C1833   1.347   .     A
C1822  C3378   1.379   1_545 A
O1823  Al1828  1.919   .     S
O1823  C1836   1.319   .     A
C1824  C1835   1.347   .     A
Al1825 O1829   1.806   .     S
Al1825 O1832   1.806   .     S
Al1826 O1885   1.806   .     S
Al1826 O1832   1.806   .     S
Al1827 O1887   1.806   .     S
Al1827 O1830   1.806   .     S
Al1828 O1831   1.806   .     S
Al1828 O1830   1.806   .     S
O1829  Al1994  1.806   1_455 S
O1831  Al1995  1.806   1_455 S
C1833  C1962   1.347   1_455 A
C1833  C1834   1.493   .     S
C1834  O1989   1.319   1_455 A
C1835  C1836   1.493   .     S
C1837  C1986   1.347   1_455 A
C1837  C1838   1.493   .     S
C1838  O1965   1.319   1_455 A
C1839  C1840   1.493   .     S
C1841  C1982   1.347   1_455 A
C1841  C1842   1.493   .     S
C1842  O1969   1.319   1_455 A
C1843  C1844   1.493   .     S
C1845  C1974   1.347   1_455 A
C1845  C1846   1.493   .     S
C1846  O1977   1.319   1_455 A
C1847  C1848   1.493   .     S
O1849  Al1881  1.919   .     S
O1849  C1890   1.319   .     A
C1850  C1945   1.347   .     A
C1850  C3430   1.379   1_545 A
O1851  Al1883  1.919   .     S
O1851  C1892   1.319   .     A
C1852  C1891   1.347   .     A
C1852  C1864   1.379   .     A
O1853  Al1882  1.919   .     S
O1853  C1950   1.319   .     A
C1854  C1893   1.347   .     A
C1854  C2754   1.379   .     A
O1855  Al1884  1.919   .     S
O1855  C1896   1.319   .     A
C1856  C1895   1.347   .     A
C1856  C2084   1.379   .     A
O1857  Al1883  1.919   .     S
O1857  C1954   1.319   .     A
C1858  C1897   1.347   .     A
O1859  Al1881  1.919   .     S
O1859  C1900   1.319   .     A
C1860  C1899   1.347   .     A
C1860  C2528   1.379   1_545 A
O1861  Al1884  1.919   .     S
O1861  C1902   1.319   .     A
C1862  C1957   1.347   .     A
O1863  Al1882  1.919   .     S
O1863  C1904   1.319   .     A
C1864  C1903   1.347   .     A
O1865  Al1883  1.919   .     S
O1865  C1958   1.319   .     A
C1866  C1901   1.347   .     A
O1867  Al1881  1.919   .     S
O1867  C1904   1.319   .     A
C1868  C1903   1.347   .     A
C1868  C1880   1.379   .     A
O1869  Al1884  1.919   .     S
O1869  C1898   1.319   .     A
C1870  C1953   1.347   .     A
O1871  Al1882  1.919   .     S
O1871  C1900   1.319   .     A
C1872  C1899   1.347   .     A
C1872  C2548   1.379   1_545 A
O1873  Al1881  1.919   .     S
O1873  C1894   1.319   .     A
C1874  C1949   1.347   .     A
C1874  C2766   1.379   .     A
O1875  Al1883  1.919   .     S
O1875  C1896   1.319   .     A
C1876  C1895   1.347   .     A
C1876  C2096   1.379   .     A
O1877  Al1882  1.919   .     S
O1877  C1946   1.319   .     A
C1878  C1889   1.347   .     A
C1878  C3434   1.379   1_545 A
O1879  Al1884  1.919   .     S
O1879  C1892   1.319   .     A
C1880  C1891   1.347   .     A
Al1881 O1885   1.806   .     S
Al1881 O1888   1.806   .     S
Al1882 O1941   1.806   .     S
Al1882 O1888   1.806   .     S
Al1883 O1943   1.806   .     S
Al1883 O1886   1.806   .     S
Al1884 O1887   1.806   .     S
Al1884 O1886   1.806   .     S
C1889  C1890   1.493   .     S
C1891  C1892   1.493   .     S
C1893  C1894   1.493   .     S
C1895  C1896   1.493   .     S
C1897  C1898   1.493   .     S
C1899  C1900   1.493   .     S
C1901  C1902   1.493   .     S
C1903  C1904   1.493   .     S
O1905  Al1937  1.919   .     S
O1905  C1946   1.319   .     A
C1906  C2001   1.347   .     A
C1906  C3486   1.379   1_545 A
O1907  Al1939  1.919   .     S
O1907  C1948   1.319   .     A
C1908  C1947   1.347   .     A
C1908  C1920   1.379   .     A
O1909  Al1938  1.919   .     S
O1909  C2006   1.319   .     A
C1910  C1949   1.347   .     A
C1910  C2810   1.379   .     A
O1911  Al1940  1.919   .     S
O1911  C1952   1.319   .     A
C1912  C1951   1.347   .     A
C1912  C2140   1.379   .     A
O1913  Al1939  1.919   .     S
O1913  C2010   1.319   .     A
C1914  C1953   1.347   .     A
O1915  Al1937  1.919   .     S
O1915  C1956   1.319   .     A
C1916  C1955   1.347   .     A
C1916  C2584   1.379   1_545 A
O1917  Al1940  1.919   .     S
O1917  C1958   1.319   .     A
C1918  C2013   1.347   .     A
O1919  Al1938  1.919   .     S
O1919  C1960   1.319   .     A
C1920  C1959   1.347   .     A
O1921  Al1939  1.919   .     S
O1921  C2014   1.319   .     A
C1922  C1957   1.347   .     A
O1923  Al1937  1.919   .     S
O1923  C1960   1.319   .     A
C1924  C1959   1.347   .     A
C1924  C1936   1.379   .     A
O1925  Al1940  1.919   .     S
O1925  C1954   1.319   .     A
C1926  C2009   1.347   .     A
O1927  Al1938  1.919   .     S
O1927  C1956   1.319   .     A
C1928  C1955   1.347   .     A
C1928  C2604   1.379   1_545 A
O1929  Al1937  1.919   .     S
O1929  C1950   1.319   .     A
C1930  C2005   1.347   .     A
C1930  C2822   1.379   .     A
O1931  Al1939  1.919   .     S
O1931  C1952   1.319   .     A
C1932  C1951   1.347   .     A
C1932  C2152   1.379   .     A
O1933  Al1938  1.919   .     S
O1933  C2002   1.319   .     A
C1934  C1945   1.347   .     A
C1934  C3490   1.379   1_545 A
O1935  Al1940  1.919   .     S
O1935  C1948   1.319   .     A
C1936  C1947   1.347   .     A
Al1937 O1941   1.806   .     S
Al1937 O1944   1.806   .     S
Al1938 O1997   1.806   .     S
Al1938 O1944   1.806   .     S
Al1939 O1999   1.806   .     S
Al1939 O1942   1.806   .     S
Al1940 O1943   1.806   .     S
Al1940 O1942   1.806   .     S
C1945  C1946   1.493   .     S
C1947  C1948   1.493   .     S
C1949  C1950   1.493   .     S
C1951  C1952   1.493   .     S
C1953  C1954   1.493   .     S
C1955  C1956   1.493   .     S
C1957  C1958   1.493   .     S
C1959  C1960   1.493   .     S
O1961  Al1993  1.919   .     S
O1961  C2002   1.319   .     A
C1962  C1833   1.347   1_655 A
C1962  C3542   1.379   1_545 A
O1963  Al1995  1.919   .     S
O1963  C2004   1.319   .     A
C1964  C2003   1.347   .     A
C1964  C1976   1.379   .     A
O1965  Al1994  1.919   .     S
O1965  C1838   1.319   1_655 A
C1966  C2005   1.347   .     A
C1966  C2866   1.379   .     A
O1967  Al1996  1.919   .     S
O1967  C2008   1.319   .     A
C1968  C2007   1.347   .     A
C1968  C2196   1.379   .     A
O1969  Al1995  1.919   .     S
O1969  C1842   1.319   1_655 A
C1970  C2009   1.347   .     A
O1971  Al1993  1.919   .     S
O1971  C2012   1.319   .     A
C1972  C2011   1.347   .     A
C1972  C2640   1.379   1_545 A
O1973  Al1996  1.919   .     S
O1973  C2014   1.319   .     A
C1974  C1845   1.347   1_655 A
O1975  Al1994  1.919   .     S
O1975  C2016   1.319   .     A
C1976  C2015   1.347   .     A
O1977  Al1995  1.919   .     S
O1977  C1846   1.319   1_655 A
C1978  C2013   1.347   .     A
O1979  Al1993  1.919   .     S
O1979  C2016   1.319   .     A
C1980  C2015   1.347   .     A
C1980  C1992   1.379   .     A
O1981  Al1996  1.919   .     S
O1981  C2010   1.319   .     A
C1982  C1841   1.347   1_655 A
O1983  Al1994  1.919   .     S
O1983  C2012   1.319   .     A
C1984  C2011   1.347   .     A
C1984  C2660   1.379   1_545 A
O1985  Al1993  1.919   .     S
O1985  C2006   1.319   .     A
C1986  C1837   1.347   1_655 A
C1986  C2878   1.379   .     A
O1987  Al1995  1.919   .     S
O1987  C2008   1.319   .     A
C1988  C2007   1.347   .     A
C1988  C2208   1.379   .     A
O1989  Al1994  1.919   .     S
O1989  C1834   1.319   1_655 A
C1990  C2001   1.347   .     A
C1990  C3546   1.379   1_545 A
O1991  Al1996  1.919   .     S
O1991  C2004   1.319   .     A
C1992  C2003   1.347   .     A
Al1993 O1997   1.806   .     S
Al1993 O2000   1.806   .     S
Al1994 O1829   1.806   1_655 S
Al1994 O2000   1.806   .     S
Al1995 O1831   1.806   1_655 S
Al1995 O1998   1.806   .     S
Al1996 O1999   1.806   .     S
Al1996 O1998   1.806   .     S
C2001  C2002   1.493   .     S
C2003  C2004   1.493   .     S
C2005  C2006   1.493   .     S
C2007  C2008   1.493   .     S
C2009  C2010   1.493   .     S
C2011  C2012   1.493   .     S
C2013  C2014   1.493   .     S
C2015  C2016   1.493   .     S
O2017  Al2049  1.919   .     S
O2017  C2058   1.319   .     A
C2018  C2113   1.347   .     A
C2018  C2702   1.379   .     A
O2019  Al2051  1.919   .     S
O2019  C2060   1.319   .     A
C2020  C2059   1.347   .     A
C2020  C2032   1.379   .     A
O2021  Al2050  1.919   .     S
O2021  C2118   1.319   .     A
C2022  C2061   1.347   .     A
C2022  C2922   1.379   .     A
O2023  Al2052  1.919   .     S
O2023  C2064   1.319   .     A
C2024  C2063   1.347   .     A
C2024  C2252   1.379   .     A
O2025  Al2051  1.919   .     S
O2025  C2122   1.319   .     A
C2026  C2065   1.347   .     A
O2027  Al2049  1.919   .     S
O2027  C2068   1.319   .     A
C2028  C2067   1.347   .     A
O2029  Al2052  1.919   .     S
O2029  C2070   1.319   .     A
C2030  C2125   1.347   .     A
O2031  Al2050  1.919   .     S
O2031  C2072   1.319   .     A
C2032  C2071   1.347   .     A
O2033  Al2051  1.919   .     S
O2033  C2126   1.319   .     A
C2034  C2069   1.347   .     A
O2035  Al2049  1.919   .     S
O2035  C2072   1.319   .     A
C2036  C2071   1.347   .     A
C2036  C2048   1.379   .     A
O2037  Al2052  1.919   .     S
O2037  C2066   1.319   .     A
C2038  C2121   1.347   .     A
O2039  Al2050  1.919   .     S
O2039  C2068   1.319   .     A
C2040  C2067   1.347   .     A
O2041  Al2049  1.919   .     S
O2041  C2062   1.319   .     A
C2042  C2117   1.347   .     A
C2042  C2934   1.379   .     A
O2043  Al2051  1.919   .     S
O2043  C2064   1.319   .     A
C2044  C2063   1.347   .     A
C2044  C2264   1.379   .     A
O2045  Al2050  1.919   .     S
O2045  C2114   1.319   .     A
C2046  C2057   1.347   .     A
C2046  C2706   1.379   .     A
O2047  Al2052  1.919   .     S
O2047  C2060   1.319   .     A
C2048  C2059   1.347   .     A
Al2049 O2053   1.806   .     S
Al2049 O2056   1.806   .     S
Al2050 O2109   1.806   .     S
Al2050 O2056   1.806   .     S
Al2051 O2111   1.806   .     S
Al2051 O2054   1.806   .     S
Al2052 O2055   1.806   .     S
Al2052 O2054   1.806   .     S
O2053  Al2218  1.806   1_455 S
O2055  Al2219  1.806   1_455 S
C2057  C2186   1.347   1_455 A
C2057  C2058   1.493   .     S
C2058  O2213   1.319   1_455 A
C2059  C2060   1.493   .     S
C2061  C2210   1.347   1_455 A
C2061  C2062   1.493   .     S
C2062  O2189   1.319   1_455 A
C2063  C2064   1.493   .     S
C2065  C2206   1.347   1_455 A
C2065  C2066   1.493   .     S
C2066  O2193   1.319   1_455 A
C2067  C2068   1.493   .     S
C2069  C2198   1.347   1_455 A
C2069  C2070   1.493   .     S
C2070  O2201   1.319   1_455 A
C2071  C2072   1.493   .     S
O2073  Al2105  1.919   .     S
O2073  C2114   1.319   .     A
C2074  C2169   1.347   .     A
C2074  C2758   1.379   .     A
O2075  Al2107  1.919   .     S
O2075  C2116   1.319   .     A
C2076  C2115   1.347   .     A
C2076  C2088   1.379   .     A
O2077  Al2106  1.919   .     S
O2077  C2174   1.319   .     A
C2078  C2117   1.347   .     A
C2078  C2978   1.379   .     A
O2079  Al2108  1.919   .     S
O2079  C2120   1.319   .     A
C2080  C2119   1.347   .     A
C2080  C2308   1.379   .     A
O2081  Al2107  1.919   .     S
O2081  C2178   1.319   .     A
C2082  C2121   1.347   .     A
O2083  Al2105  1.919   .     S
O2083  C2124   1.319   .     A
C2084  C2123   1.347   .     A
O2085  Al2108  1.919   .     S
O2085  C2126   1.319   .     A
C2086  C2181   1.347   .     A
O2087  Al2106  1.919   .     S
O2087  C2128   1.319   .     A
C2088  C2127   1.347   .     A
O2089  Al2107  1.919   .     S
O2089  C2182   1.319   .     A
C2090  C2125   1.347   .     A
O2091  Al2105  1.919   .     S
O2091  C2128   1.319   .     A
C2092  C2127   1.347   .     A
C2092  C2104   1.379   .     A
O2093  Al2108  1.919   .     S
O2093  C2122   1.319   .     A
C2094  C2177   1.347   .     A
O2095  Al2106  1.919   .     S
O2095  C2124   1.319   .     A
C2096  C2123   1.347   .     A
O2097  Al2105  1.919   .     S
O2097  C2118   1.319   .     A
C2098  C2173   1.347   .     A
C2098  C2990   1.379   .     A
O2099  Al2107  1.919   .     S
O2099  C2120   1.319   .     A
C2100  C2119   1.347   .     A
C2100  C2320   1.379   .     A
O2101  Al2106  1.919   .     S
O2101  C2170   1.319   .     A
C2102  C2113   1.347   .     A
C2102  C2762   1.379   .     A
O2103  Al2108  1.919   .     S
O2103  C2116   1.319   .     A
C2104  C2115   1.347   .     A
Al2105 O2109   1.806   .     S
Al2105 O2112   1.806   .     S
Al2106 O2165   1.806   .     S
Al2106 O2112   1.806   .     S
Al2107 O2167   1.806   .     S
Al2107 O2110   1.806   .     S
Al2108 O2111   1.806   .     S
Al2108 O2110   1.806   .     S
C2113  C2114   1.493   .     S
C2115  C2116   1.493   .     S
C2117  C2118   1.493   .     S
C2119  C2120   1.493   .     S
C2121  C2122   1.493   .     S
C2123  C2124   1.493   .     S
C2125  C2126   1.493   .     S
C2127  C2128   1.493   .     S
O2129  Al2161  1.919   .     S
O2129  C2170   1.319   .     A
C2130  C2225   1.347   .     A
C2130  C2814   1.379   .     A
O2131  Al2163  1.919   .     S
O2131  C2172   1.319   .     A
C2132  C2171   1.347   .     A
C2132  C2144   1.379   .     A
O2133  Al2162  1.919   .     S
O2133  C2230   1.319   .     A
C2134  C2173   1.347   .     A
C2134  C3034   1.379   .     A
O2135  Al2164  1.919   .     S
O2135  C2176   1.319   .     A
C2136  C2175   1.347   .     A
C2136  C2364   1.379   .     A
O2137  Al2163  1.919   .     S
O2137  C2234   1.319   .     A
C2138  C2177   1.347   .     A
O2139  Al2161  1.919   .     S
O2139  C2180   1.319   .     A
C2140  C2179   1.347   .     A
O2141  Al2164  1.919   .     S
O2141  C2182   1.319   .     A
C2142  C2237   1.347   .     A
O2143  Al2162  1.919   .     S
O2143  C2184   1.319   .     A
C2144  C2183   1.347   .     A
O2145  Al2163  1.919   .     S
O2145  C2238   1.319   .     A
C2146  C2181   1.347   .     A
O2147  Al2161  1.919   .     S
O2147  C2184   1.319   .     A
C2148  C2183   1.347   .     A
C2148  C2160   1.379   .     A
O2149  Al2164  1.919   .     S
O2149  C2178   1.319   .     A
C2150  C2233   1.347   .     A
O2151  Al2162  1.919   .     S
O2151  C2180   1.319   .     A
C2152  C2179   1.347   .     A
O2153  Al2161  1.919   .     S
O2153  C2174   1.319   .     A
C2154  C2229   1.347   .     A
C2154  C3046   1.379   .     A
O2155  Al2163  1.919   .     S
O2155  C2176   1.319   .     A
C2156  C2175   1.347   .     A
C2156  C2376   1.379   .     A
O2157  Al2162  1.919   .     S
O2157  C2226   1.319   .     A
C2158  C2169   1.347   .     A
C2158  C2818   1.379   .     A
O2159  Al2164  1.919   .     S
O2159  C2172   1.319   .     A
C2160  C2171   1.347   .     A
Al2161 O2165   1.806   .     S
Al2161 O2168   1.806   .     S
Al2162 O2221   1.806   .     S
Al2162 O2168   1.806   .     S
Al2163 O2223   1.806   .     S
Al2163 O2166   1.806   .     S
Al2164 O2167   1.806   .     S
Al2164 O2166   1.806   .     S
C2169  C2170   1.493   .     S
C2171  C2172   1.493   .     S
C2173  C2174   1.493   .     S
C2175  C2176   1.493   .     S
C2177  C2178   1.493   .     S
C2179  C2180   1.493   .     S
C2181  C2182   1.493   .     S
C2183  C2184   1.493   .     S
O2185  Al2217  1.919   .     S
O2185  C2226   1.319   .     A
C2186  C2057   1.347   1_655 A
C2186  C2870   1.379   .     A
O2187  Al2219  1.919   .     S
O2187  C2228   1.319   .     A
C2188  C2227   1.347   .     A
C2188  C2200   1.379   .     A
O2189  Al2218  1.919   .     S
O2189  C2062   1.319   1_655 A
C2190  C2229   1.347   .     A
C2190  C3090   1.379   .     A
O2191  Al2220  1.919   .     S
O2191  C2232   1.319   .     A
C2192  C2231   1.347   .     A
C2192  C2420   1.379   .     A
O2193  Al2219  1.919   .     S
O2193  C2066   1.319   1_655 A
C2194  C2233   1.347   .     A
O2195  Al2217  1.919   .     S
O2195  C2236   1.319   .     A
C2196  C2235   1.347   .     A
O2197  Al2220  1.919   .     S
O2197  C2238   1.319   .     A
C2198  C2069   1.347   1_655 A
O2199  Al2218  1.919   .     S
O2199  C2240   1.319   .     A
C2200  C2239   1.347   .     A
O2201  Al2219  1.919   .     S
O2201  C2070   1.319   1_655 A
C2202  C2237   1.347   .     A
O2203  Al2217  1.919   .     S
O2203  C2240   1.319   .     A
C2204  C2239   1.347   .     A
C2204  C2216   1.379   .     A
O2205  Al2220  1.919   .     S
O2205  C2234   1.319   .     A
C2206  C2065   1.347   1_655 A
O2207  Al2218  1.919   .     S
O2207  C2236   1.319   .     A
C2208  C2235   1.347   .     A
O2209  Al2217  1.919   .     S
O2209  C2230   1.319   .     A
C2210  C2061   1.347   1_655 A
C2210  C3102   1.379   .     A
O2211  Al2219  1.919   .     S
O2211  C2232   1.319   .     A
C2212  C2231   1.347   .     A
C2212  C2432   1.379   .     A
O2213  Al2218  1.919   .     S
O2213  C2058   1.319   1_655 A
C2214  C2225   1.347   .     A
C2214  C2874   1.379   .     A
O2215  Al2220  1.919   .     S
O2215  C2228   1.319   .     A
C2216  C2227   1.347   .     A
Al2217 O2221   1.806   .     S
Al2217 O2224   1.806   .     S
Al2218 O2053   1.806   1_655 S
Al2218 O2224   1.806   .     S
Al2219 O2055   1.806   1_655 S
Al2219 O2222   1.806   .     S
Al2220 O2223   1.806   .     S
Al2220 O2222   1.806   .     S
C2225  C2226   1.493   .     S
C2227  C2228   1.493   .     S
C2229  C2230   1.493   .     S
C2231  C2232   1.493   .     S
C2233  C2234   1.493   .     S
C2235  C2236   1.493   .     S
C2237  C2238   1.493   .     S
C2239  C2240   1.493   .     S
O2241  Al2273  1.919   .     S
O2241  C2282   1.319   .     A
C2242  C2337   1.347   .     A
C2242  C2926   1.379   .     A
O2243  Al2275  1.919   .     S
O2243  C2284   1.319   .     A
C2244  C2283   1.347   .     A
C2244  C2256   1.379   .     A
O2245  Al2274  1.919   .     S
O2245  C2342   1.319   .     A
C2246  C2285   1.347   .     A
C2246  C3146   1.379   .     A
O2247  Al2276  1.919   .     S
O2247  C2288   1.319   .     A
C2248  C2287   1.347   .     A
C2248  C2476   1.379   .     A
O2249  Al2275  1.919   .     S
O2249  C2346   1.319   .     A
C2250  C2289   1.347   .     A
O2251  Al2273  1.919   .     S
O2251  C2292   1.319   .     A
C2252  C2291   1.347   .     A
O2253  Al2276  1.919   .     S
O2253  C2294   1.319   .     A
C2254  C2349   1.347   .     A
O2255  Al2274  1.919   .     S
O2255  C2296   1.319   .     A
C2256  C2295   1.347   .     A
O2257  Al2275  1.919   .     S
O2257  C2350   1.319   .     A
C2258  C2293   1.347   .     A
O2259  Al2273  1.919   .     S
O2259  C2296   1.319   .     A
C2260  C2295   1.347   .     A
C2260  C2272   1.379   .     A
O2261  Al2276  1.919   .     S
O2261  C2290   1.319   .     A
C2262  C2345   1.347   .     A
O2263  Al2274  1.919   .     S
O2263  C2292   1.319   .     A
C2264  C2291   1.347   .     A
O2265  Al2273  1.919   .     S
O2265  C2286   1.319   .     A
C2266  C2341   1.347   .     A
C2266  C3158   1.379   .     A
O2267  Al2275  1.919   .     S
O2267  C2288   1.319   .     A
C2268  C2287   1.347   .     A
C2268  C2488   1.379   .     A
O2269  Al2274  1.919   .     S
O2269  C2338   1.319   .     A
C2270  C2281   1.347   .     A
C2270  C2930   1.379   .     A
O2271  Al2276  1.919   .     S
O2271  C2284   1.319   .     A
C2272  C2283   1.347   .     A
Al2273 O2277   1.806   .     S
Al2273 O2280   1.806   .     S
Al2274 O2333   1.806   .     S
Al2274 O2280   1.806   .     S
Al2275 O2335   1.806   .     S
Al2275 O2278   1.806   .     S
Al2276 O2279   1.806   .     S
Al2276 O2278   1.806   .     S
O2277  Al2442  1.806   1_455 S
O2279  Al2443  1.806   1_455 S
C2281  C2410   1.347   1_455 A
C2281  C2282   1.493   .     S
C2282  O2437   1.319   1_455 A
C2283  C2284   1.493   .     S
C2285  C2434   1.347   1_455 A
C2285  C2286   1.493   .     S
C2286  O2413   1.319   1_455 A
C2287  C2288   1.493   .     S
C2289  C2430   1.347   1_455 A
C2289  C2290   1.493   .     S
C2290  O2417   1.319   1_455 A
C2291  C2292   1.493   .     S
C2293  C2422   1.347   1_455 A
C2293  C2294   1.493   .     S
C2294  O2425   1.319   1_455 A
C2295  C2296   1.493   .     S
O2297  Al2329  1.919   .     S
O2297  C2338   1.319   .     A
C2298  C2393   1.347   .     A
C2298  C2982   1.379   .     A
O2299  Al2331  1.919   .     S
O2299  C2340   1.319   .     A
C2300  C2339   1.347   .     A
C2300  C2312   1.379   .     A
O2301  Al2330  1.919   .     S
O2301  C2398   1.319   .     A
C2302  C2341   1.347   .     A
C2302  C3202   1.379   .     A
O2303  Al2332  1.919   .     S
O2303  C2344   1.319   .     A
C2304  C2343   1.347   .     A
C2304  C2532   1.379   .     A
O2305  Al2331  1.919   .     S
O2305  C2402   1.319   .     A
C2306  C2345   1.347   .     A
O2307  Al2329  1.919   .     S
O2307  C2348   1.319   .     A
C2308  C2347   1.347   .     A
O2309  Al2332  1.919   .     S
O2309  C2350   1.319   .     A
C2310  C2405   1.347   .     A
O2311  Al2330  1.919   .     S
O2311  C2352   1.319   .     A
C2312  C2351   1.347   .     A
O2313  Al2331  1.919   .     S
O2313  C2406   1.319   .     A
C2314  C2349   1.347   .     A
O2315  Al2329  1.919   .     S
O2315  C2352   1.319   .     A
C2316  C2351   1.347   .     A
C2316  C2328   1.379   .     A
O2317  Al2332  1.919   .     S
O2317  C2346   1.319   .     A
C2318  C2401   1.347   .     A
O2319  Al2330  1.919   .     S
O2319  C2348   1.319   .     A
C2320  C2347   1.347   .     A
O2321  Al2329  1.919   .     S
O2321  C2342   1.319   .     A
C2322  C2397   1.347   .     A
C2322  C3214   1.379   .     A
O2323  Al2331  1.919   .     S
O2323  C2344   1.319   .     A
C2324  C2343   1.347   .     A
C2324  C2544   1.379   .     A
O2325  Al2330  1.919   .     S
O2325  C2394   1.319   .     A
C2326  C2337   1.347   .     A
C2326  C2986   1.379   .     A
O2327  Al2332  1.919   .     S
O2327  C2340   1.319   .     A
C2328  C2339   1.347   .     A
Al2329 O2333   1.806   .     S
Al2329 O2336   1.806   .     S
Al2330 O2389   1.806   .     S
Al2330 O2336   1.806   .     S
Al2331 O2391   1.806   .     S
Al2331 O2334   1.806   .     S
Al2332 O2335   1.806   .     S
Al2332 O2334   1.806   .     S
C2337  C2338   1.493   .     S
C2339  C2340   1.493   .     S
C2341  C2342   1.493   .     S
C2343  C2344   1.493   .     S
C2345  C2346   1.493   .     S
C2347  C2348   1.493   .     S
C2349  C2350   1.493   .     S
C2351  C2352   1.493   .     S
O2353  Al2385  1.919   .     S
O2353  C2394   1.319   .     A
C2354  C2449   1.347   .     A
C2354  C3038   1.379   .     A
O2355  Al2387  1.919   .     S
O2355  C2396   1.319   .     A
C2356  C2395   1.347   .     A
C2356  C2368   1.379   .     A
O2357  Al2386  1.919   .     S
O2357  C2454   1.319   .     A
C2358  C2397   1.347   .     A
C2358  C3258   1.379   .     A
O2359  Al2388  1.919   .     S
O2359  C2400   1.319   .     A
C2360  C2399   1.347   .     A
C2360  C2588   1.379   .     A
O2361  Al2387  1.919   .     S
O2361  C2458   1.319   .     A
C2362  C2401   1.347   .     A
O2363  Al2385  1.919   .     S
O2363  C2404   1.319   .     A
C2364  C2403   1.347   .     A
O2365  Al2388  1.919   .     S
O2365  C2406   1.319   .     A
C2366  C2461   1.347   .     A
O2367  Al2386  1.919   .     S
O2367  C2408   1.319   .     A
C2368  C2407   1.347   .     A
O2369  Al2387  1.919   .     S
O2369  C2462   1.319   .     A
C2370  C2405   1.347   .     A
O2371  Al2385  1.919   .     S
O2371  C2408   1.319   .     A
C2372  C2407   1.347   .     A
C2372  C2384   1.379   .     A
O2373  Al2388  1.919   .     S
O2373  C2402   1.319   .     A
C2374  C2457   1.347   .     A
O2375  Al2386  1.919   .     S
O2375  C2404   1.319   .     A
C2376  C2403   1.347   .     A
O2377  Al2385  1.919   .     S
O2377  C2398   1.319   .     A
C2378  C2453   1.347   .     A
C2378  C3270   1.379   .     A
O2379  Al2387  1.919   .     S
O2379  C2400   1.319   .     A
C2380  C2399   1.347   .     A
C2380  C2600   1.379   .     A
O2381  Al2386  1.919   .     S
O2381  C2450   1.319   .     A
C2382  C2393   1.347   .     A
C2382  C3042   1.379   .     A
O2383  Al2388  1.919   .     S
O2383  C2396   1.319   .     A
C2384  C2395   1.347   .     A
Al2385 O2389   1.806   .     S
Al2385 O2392   1.806   .     S
Al2386 O2445   1.806   .     S
Al2386 O2392   1.806   .     S
Al2387 O2447   1.806   .     S
Al2387 O2390   1.806   .     S
Al2388 O2391   1.806   .     S
Al2388 O2390   1.806   .     S
C2393  C2394   1.493   .     S
C2395  C2396   1.493   .     S
C2397  C2398   1.493   .     S
C2399  C2400   1.493   .     S
C2401  C2402   1.493   .     S
C2403  C2404   1.493   .     S
C2405  C2406   1.493   .     S
C2407  C2408   1.493   .     S
O2409  Al2441  1.919   .     S
O2409  C2450   1.319   .     A
C2410  C2281   1.347   1_655 A
C2410  C3094   1.379   .     A
O2411  Al2443  1.919   .     S
O2411  C2452   1.319   .     A
C2412  C2451   1.347   .     A
C2412  C2424   1.379   .     A
O2413  Al2442  1.919   .     S
O2413  C2286   1.319   1_655 A
C2414  C2453   1.347   .     A
C2414  C3314   1.379   .     A
O2415  Al2444  1.919   .     S
O2415  C2456   1.319   .     A
C2416  C2455   1.347   .     A
C2416  C2644   1.379   .     A
O2417  Al2443  1.919   .     S
O2417  C2290   1.319   1_655 A
C2418  C2457   1.347   .     A
O2419  Al2441  1.919   .     S
O2419  C2460   1.319   .     A
C2420  C2459   1.347   .     A
O2421  Al2444  1.919   .     S
O2421  C2462   1.319   .     A
C2422  C2293   1.347   1_655 A
O2423  Al2442  1.919   .     S
O2423  C2464   1.319   .     A
C2424  C2463   1.347   .     A
O2425  Al2443  1.919   .     S
O2425  C2294   1.319   1_655 A
C2426  C2461   1.347   .     A
O2427  Al2441  1.919   .     S
O2427  C2464   1.319   .     A
C2428  C2463   1.347   .     A
C2428  C2440   1.379   .     A
O2429  Al2444  1.919   .     S
O2429  C2458   1.319   .     A
C2430  C2289   1.347   1_655 A
O2431  Al2442  1.919   .     S
O2431  C2460   1.319   .     A
C2432  C2459   1.347   .     A
O2433  Al2441  1.919   .     S
O2433  C2454   1.319   .     A
C2434  C2285   1.347   1_655 A
C2434  C3326   1.379   .     A
O2435  Al2443  1.919   .     S
O2435  C2456   1.319   .     A
C2436  C2455   1.347   .     A
C2436  C2656   1.379   .     A
O2437  Al2442  1.919   .     S
O2437  C2282   1.319   1_655 A
C2438  C2449   1.347   .     A
C2438  C3098   1.379   .     A
O2439  Al2444  1.919   .     S
O2439  C2452   1.319   .     A
C2440  C2451   1.347   .     A
Al2441 O2445   1.806   .     S
Al2441 O2448   1.806   .     S
Al2442 O2277   1.806   1_655 S
Al2442 O2448   1.806   .     S
Al2443 O2279   1.806   1_655 S
Al2443 O2446   1.806   .     S
Al2444 O2447   1.806   .     S
Al2444 O2446   1.806   .     S
C2449  C2450   1.493   .     S
C2451  C2452   1.493   .     S
C2453  C2454   1.493   .     S
C2455  C2456   1.493   .     S
C2457  C2458   1.493   .     S
C2459  C2460   1.493   .     S
C2461  C2462   1.493   .     S
C2463  C2464   1.493   .     S
O2465  Al2497  1.919   .     S
O2465  C2506   1.319   .     A
C2466  C2561   1.347   .     A
C2466  C3150   1.379   .     A
O2467  Al2499  1.919   .     S
O2467  C2508   1.319   .     A
C2468  C2507   1.347   .     A
C2468  C2480   1.379   .     A
O2469  Al2498  1.919   .     S
O2469  C2566   1.319   .     A
C2470  C2509   1.347   .     A
C2470  C3370   1.379   .     A
O2471  Al2500  1.919   .     S
O2471  C2512   1.319   .     A
C2472  C2511   1.347   .     A
C2472  C1804   1.379   1_565 A
O2473  Al2499  1.919   .     S
O2473  C2570   1.319   .     A
C2474  C2513   1.347   .     A
O2475  Al2497  1.919   .     S
O2475  C2516   1.319   .     A
C2476  C2515   1.347   .     A
O2477  Al2500  1.919   .     S
O2477  C2518   1.319   .     A
C2478  C2573   1.347   .     A
C2478  C898    1.379   1_565 A
O2479  Al2498  1.919   .     S
O2479  C2520   1.319   .     A
C2480  C2519   1.347   .     A
O2481  Al2499  1.919   .     S
O2481  C2574   1.319   .     A
C2482  C2517   1.347   .     A
C2482  C926    1.379   1_565 A
O2483  Al2497  1.919   .     S
O2483  C2520   1.319   .     A
C2484  C2519   1.347   .     A
C2484  C2496   1.379   .     A
O2485  Al2500  1.919   .     S
O2485  C2514   1.319   .     A
C2486  C2569   1.347   .     A
O2487  Al2498  1.919   .     S
O2487  C2516   1.319   .     A
C2488  C2515   1.347   .     A
O2489  Al2497  1.919   .     S
O2489  C2510   1.319   .     A
C2490  C2565   1.347   .     A
C2490  C3382   1.379   .     A
O2491  Al2499  1.919   .     S
O2491  C2512   1.319   .     A
C2492  C2511   1.347   .     A
C2492  C1816   1.379   1_565 A
O2493  Al2498  1.919   .     S
O2493  C2562   1.319   .     A
C2494  C2505   1.347   .     A
C2494  C3154   1.379   .     A
O2495  Al2500  1.919   .     S
O2495  C2508   1.319   .     A
C2496  C2507   1.347   .     A
Al2497 O2501   1.806   .     S
Al2497 O2504   1.806   .     S
Al2498 O2557   1.806   .     S
Al2498 O2504   1.806   .     S
Al2499 O2559   1.806   .     S
Al2499 O2502   1.806   .     S
Al2500 O2503   1.806   .     S
Al2500 O2502   1.806   .     S
O2501  Al2666  1.806   1_455 S
O2503  Al2667  1.806   1_455 S
C2505  C2634   1.347   1_455 A
C2505  C2506   1.493   .     S
C2506  O2661   1.319   1_455 A
C2507  C2508   1.493   .     S
C2509  C2658   1.347   1_455 A
C2509  C2510   1.493   .     S
C2510  O2637   1.319   1_455 A
C2511  C2512   1.493   .     S
C2513  C2654   1.347   1_455 A
C2513  C2514   1.493   .     S
C2514  O2641   1.319   1_455 A
C2515  C2516   1.493   .     S
C2517  C2646   1.347   1_455 A
C2517  C2518   1.493   .     S
C2518  O2649   1.319   1_455 A
C2519  C2520   1.493   .     S
O2521  Al2553  1.919   .     S
O2521  C2562   1.319   .     A
C2522  C2617   1.347   .     A
C2522  C3206   1.379   .     A
O2523  Al2555  1.919   .     S
O2523  C2564   1.319   .     A
C2524  C2563   1.347   .     A
C2524  C2536   1.379   .     A
O2525  Al2554  1.919   .     S
O2525  C2622   1.319   .     A
C2526  C2565   1.347   .     A
C2526  C3426   1.379   .     A
O2527  Al2556  1.919   .     S
O2527  C2568   1.319   .     A
C2528  C2567   1.347   .     A
C2528  C1860   1.379   1_565 A
O2529  Al2555  1.919   .     S
O2529  C2626   1.319   .     A
C2530  C2569   1.347   .     A
O2531  Al2553  1.919   .     S
O2531  C2572   1.319   .     A
C2532  C2571   1.347   .     A
O2533  Al2556  1.919   .     S
O2533  C2574   1.319   .     A
C2534  C2629   1.347   .     A
C2534  C954    1.379   1_565 A
O2535  Al2554  1.919   .     S
O2535  C2576   1.319   .     A
C2536  C2575   1.347   .     A
O2537  Al2555  1.919   .     S
O2537  C2630   1.319   .     A
C2538  C2573   1.347   .     A
C2538  C982    1.379   1_565 A
O2539  Al2553  1.919   .     S
O2539  C2576   1.319   .     A
C2540  C2575   1.347   .     A
C2540  C2552   1.379   .     A
O2541  Al2556  1.919   .     S
O2541  C2570   1.319   .     A
C2542  C2625   1.347   .     A
O2543  Al2554  1.919   .     S
O2543  C2572   1.319   .     A
C2544  C2571   1.347   .     A
O2545  Al2553  1.919   .     S
O2545  C2566   1.319   .     A
C2546  C2621   1.347   .     A
C2546  C3438   1.379   .     A
O2547  Al2555  1.919   .     S
O2547  C2568   1.319   .     A
C2548  C2567   1.347   .     A
C2548  C1872   1.379   1_565 A
O2549  Al2554  1.919   .     S
O2549  C2618   1.319   .     A
C2550  C2561   1.347   .     A
C2550  C3210   1.379   .     A
O2551  Al2556  1.919   .     S
O2551  C2564   1.319   .     A
C2552  C2563   1.347   .     A
Al2553 O2557   1.806   .     S
Al2553 O2560   1.806   .     S
Al2554 O2613   1.806   .     S
Al2554 O2560   1.806   .     S
Al2555 O2615   1.806   .     S
Al2555 O2558   1.806   .     S
Al2556 O2559   1.806   .     S
Al2556 O2558   1.806   .     S
C2561  C2562   1.493   .     S
C2563  C2564   1.493   .     S
C2565  C2566   1.493   .     S
C2567  C2568   1.493   .     S
C2569  C2570   1.493   .     S
C2571  C2572   1.493   .     S
C2573  C2574   1.493   .     S
C2575  C2576   1.493   .     S
O2577  Al2609  1.919   .     S
O2577  C2618   1.319   .     A
C2578  C2673   1.347   .     A
C2578  C3262   1.379   .     A
O2579  Al2611  1.919   .     S
O2579  C2620   1.319   .     A
C2580  C2619   1.347   .     A
C2580  C2592   1.379   .     A
O2581  Al2610  1.919   .     S
O2581  C2678   1.319   .     A
C2582  C2621   1.347   .     A
C2582  C3482   1.379   .     A
O2583  Al2612  1.919   .     S
O2583  C2624   1.319   .     A
C2584  C2623   1.347   .     A
C2584  C1916   1.379   1_565 A
O2585  Al2611  1.919   .     S
O2585  C2682   1.319   .     A
C2586  C2625   1.347   .     A
O2587  Al2609  1.919   .     S
O2587  C2628   1.319   .     A
C2588  C2627   1.347   .     A
O2589  Al2612  1.919   .     S
O2589  C2630   1.319   .     A
C2590  C2685   1.347   .     A
C2590  C1010   1.379   1_565 A
O2591  Al2610  1.919   .     S
O2591  C2632   1.319   .     A
C2592  C2631   1.347   .     A
O2593  Al2611  1.919   .     S
O2593  C2686   1.319   .     A
C2594  C2629   1.347   .     A
C2594  C1038   1.379   1_565 A
O2595  Al2609  1.919   .     S
O2595  C2632   1.319   .     A
C2596  C2631   1.347   .     A
C2596  C2608   1.379   .     A
O2597  Al2612  1.919   .     S
O2597  C2626   1.319   .     A
C2598  C2681   1.347   .     A
O2599  Al2610  1.919   .     S
O2599  C2628   1.319   .     A
C2600  C2627   1.347   .     A
O2601  Al2609  1.919   .     S
O2601  C2622   1.319   .     A
C2602  C2677   1.347   .     A
C2602  C3494   1.379   .     A
O2603  Al2611  1.919   .     S
O2603  C2624   1.319   .     A
C2604  C2623   1.347   .     A
C2604  C1928   1.379   1_565 A
O2605  Al2610  1.919   .     S
O2605  C2674   1.319   .     A
C2606  C2617   1.347   .     A
C2606  C3266   1.379   .     A
O2607  Al2612  1.919   .     S
O2607  C2620   1.319   .     A
C2608  C2619   1.347   .     A
Al2609 O2613   1.806   .     S
Al2609 O2616   1.806   .     S
Al2610 O2669   1.806   .     S
Al2610 O2616   1.806   .     S
Al2611 O2671   1.806   .     S
Al2611 O2614   1.806   .     S
Al2612 O2615   1.806   .     S
Al2612 O2614   1.806   .     S
C2617  C2618   1.493   .     S
C2619  C2620   1.493   .     S
C2621  C2622   1.493   .     S
C2623  C2624   1.493   .     S
C2625  C2626   1.493   .     S
C2627  C2628   1.493   .     S
C2629  C2630   1.493   .     S
C2631  C2632   1.493   .     S
O2633  Al2665  1.919   .     S
O2633  C2674   1.319   .     A
C2634  C2505   1.347   1_655 A
C2634  C3318   1.379   .     A
O2635  Al2667  1.919   .     S
O2635  C2676   1.319   .     A
C2636  C2675   1.347   .     A
C2636  C2648   1.379   .     A
O2637  Al2666  1.919   .     S
O2637  C2510   1.319   1_655 A
C2638  C2677   1.347   .     A
C2638  C3538   1.379   .     A
O2639  Al2668  1.919   .     S
O2639  C2680   1.319   .     A
C2640  C2679   1.347   .     A
C2640  C1972   1.379   1_565 A
O2641  Al2667  1.919   .     S
O2641  C2514   1.319   1_655 A
C2642  C2681   1.347   .     A
O2643  Al2665  1.919   .     S
O2643  C2684   1.319   .     A
C2644  C2683   1.347   .     A
O2645  Al2668  1.919   .     S
O2645  C2686   1.319   .     A
C2646  C2517   1.347   1_655 A
C2646  C1066   1.379   1_565 A
O2647  Al2666  1.919   .     S
O2647  C2688   1.319   .     A
C2648  C2687   1.347   .     A
O2649  Al2667  1.919   .     S
O2649  C2518   1.319   1_655 A
C2650  C2685   1.347   .     A
C2650  C1094   1.379   1_565 A
O2651  Al2665  1.919   .     S
O2651  C2688   1.319   .     A
C2652  C2687   1.347   .     A
C2652  C2664   1.379   .     A
O2653  Al2668  1.919   .     S
O2653  C2682   1.319   .     A
C2654  C2513   1.347   1_655 A
O2655  Al2666  1.919   .     S
O2655  C2684   1.319   .     A
C2656  C2683   1.347   .     A
O2657  Al2665  1.919   .     S
O2657  C2678   1.319   .     A
C2658  C2509   1.347   1_655 A
C2658  C3550   1.379   .     A
O2659  Al2667  1.919   .     S
O2659  C2680   1.319   .     A
C2660  C2679   1.347   .     A
C2660  C1984   1.379   1_565 A
O2661  Al2666  1.919   .     S
O2661  C2506   1.319   1_655 A
C2662  C2673   1.347   .     A
C2662  C3322   1.379   .     A
O2663  Al2668  1.919   .     S
O2663  C2676   1.319   .     A
C2664  C2675   1.347   .     A
Al2665 O2669   1.806   .     S
Al2665 O2672   1.806   .     S
Al2666 O2501   1.806   1_655 S
Al2666 O2672   1.806   .     S
Al2667 O2503   1.806   1_655 S
Al2667 O2670   1.806   .     S
Al2668 O2671   1.806   .     S
Al2668 O2670   1.806   .     S
C2673  C2674   1.493   .     S
C2675  C2676   1.493   .     S
C2677  C2678   1.493   .     S
C2679  C2680   1.493   .     S
C2681  C2682   1.493   .     S
C2683  C2684   1.493   .     S
C2685  C2686   1.493   .     S
C2687  C2688   1.493   .     S
O2689  Al2721  1.919   .     S
O2689  C2730   1.319   .     A
C2690  C2785   1.347   .     A
C2690  C686    1.379   1_546 A
O2691  Al2723  1.919   .     S
O2691  C2732   1.319   .     A
C2692  C2731   1.347   .     A
C2692  C2704   1.379   .     A
O2693  Al2722  1.919   .     S
O2693  C2790   1.319   .     A
C2694  C2733   1.347   .     A
C2694  C10     1.379   1_556 A
O2695  Al2724  1.919   .     S
O2695  C2736   1.319   .     A
C2696  C2735   1.347   .     A
C2696  C2924   1.379   .     A
O2697  Al2723  1.919   .     S
O2697  C2794   1.319   .     A
C2698  C2737   1.347   .     A
O2699  Al2721  1.919   .     S
O2699  C2740   1.319   .     A
C2700  C2739   1.347   .     A
C2700  C3368   1.379   1_545 A
O2701  Al2724  1.919   .     S
O2701  C2742   1.319   .     A
C2702  C2797   1.347   .     A
O2703  Al2722  1.919   .     S
O2703  C2744   1.319   .     A
C2704  C2743   1.347   .     A
O2705  Al2723  1.919   .     S
O2705  C2798   1.319   .     A
C2706  C2741   1.347   .     A
O2707  Al2721  1.919   .     S
O2707  C2744   1.319   .     A
C2708  C2743   1.347   .     A
C2708  C2720   1.379   .     A
O2709  Al2724  1.919   .     S
O2709  C2738   1.319   .     A
C2710  C2793   1.347   .     A
O2711  Al2722  1.919   .     S
O2711  C2740   1.319   .     A
C2712  C2739   1.347   .     A
C2712  C3388   1.379   1_545 A
O2713  Al2721  1.919   .     S
O2713  C2734   1.319   .     A
C2714  C2789   1.347   .     A
C2714  C22     1.379   1_556 A
O2715  Al2723  1.919   .     S
O2715  C2736   1.319   .     A
C2716  C2735   1.347   .     A
C2716  C2936   1.379   .     A
O2717  Al2722  1.919   .     S
O2717  C2786   1.319   .     A
C2718  C2729   1.347   .     A
C2718  C690    1.379   1_546 A
O2719  Al2724  1.919   .     S
O2719  C2732   1.319   .     A
C2720  C2731   1.347   .     A
Al2721 O2725   1.806   .     S
Al2721 O2728   1.806   .     S
Al2722 O2781   1.806   .     S
Al2722 O2728   1.806   .     S
Al2723 O2783   1.806   .     S
Al2723 O2726   1.806   .     S
Al2724 O2727   1.806   .     S
Al2724 O2726   1.806   .     S
O2725  Al2890  1.806   1_455 S
O2727  Al2891  1.806   1_455 S
C2729  C2858   1.347   1_455 A
C2729  C2730   1.493   .     S
C2730  O2885   1.319   1_455 A
C2731  C2732   1.493   .     S
C2733  C2882   1.347   1_455 A
C2733  C2734   1.493   .     S
C2734  O2861   1.319   1_455 A
C2735  C2736   1.493   .     S
C2737  C2878   1.347   1_455 A
C2737  C2738   1.493   .     S
C2738  O2865   1.319   1_455 A
C2739  C2740   1.493   .     S
C2741  C2870   1.347   1_455 A
C2741  C2742   1.493   .     S
C2742  O2873   1.319   1_455 A
C2743  C2744   1.493   .     S
O2745  Al2777  1.919   .     S
O2745  C2786   1.319   .     A
C2746  C2841   1.347   .     A
C2746  C742    1.379   1_546 A
O2747  Al2779  1.919   .     S
O2747  C2788   1.319   .     A
C2748  C2787   1.347   .     A
C2748  C2760   1.379   .     A
O2749  Al2778  1.919   .     S
O2749  C2846   1.319   .     A
C2750  C2789   1.347   .     A
C2750  C66     1.379   1_556 A
O2751  Al2780  1.919   .     S
O2751  C2792   1.319   .     A
C2752  C2791   1.347   .     A
C2752  C2980   1.379   .     A
O2753  Al2779  1.919   .     S
O2753  C2850   1.319   .     A
C2754  C2793   1.347   .     A
O2755  Al2777  1.919   .     S
O2755  C2796   1.319   .     A
C2756  C2795   1.347   .     A
C2756  C3424   1.379   1_545 A
O2757  Al2780  1.919   .     S
O2757  C2798   1.319   .     A
C2758  C2853   1.347   .     A
O2759  Al2778  1.919   .     S
O2759  C2800   1.319   .     A
C2760  C2799   1.347   .     A
O2761  Al2779  1.919   .     S
O2761  C2854   1.319   .     A
C2762  C2797   1.347   .     A
O2763  Al2777  1.919   .     S
O2763  C2800   1.319   .     A
C2764  C2799   1.347   .     A
C2764  C2776   1.379   .     A
O2765  Al2780  1.919   .     S
O2765  C2794   1.319   .     A
C2766  C2849   1.347   .     A
O2767  Al2778  1.919   .     S
O2767  C2796   1.319   .     A
C2768  C2795   1.347   .     A
C2768  C3444   1.379   1_545 A
O2769  Al2777  1.919   .     S
O2769  C2790   1.319   .     A
C2770  C2845   1.347   .     A
C2770  C78     1.379   1_556 A
O2771  Al2779  1.919   .     S
O2771  C2792   1.319   .     A
C2772  C2791   1.347   .     A
C2772  C2992   1.379   .     A
O2773  Al2778  1.919   .     S
O2773  C2842   1.319   .     A
C2774  C2785   1.347   .     A
C2774  C746    1.379   1_546 A
O2775  Al2780  1.919   .     S
O2775  C2788   1.319   .     A
C2776  C2787   1.347   .     A
Al2777 O2781   1.806   .     S
Al2777 O2784   1.806   .     S
Al2778 O2837   1.806   .     S
Al2778 O2784   1.806   .     S
Al2779 O2839   1.806   .     S
Al2779 O2782   1.806   .     S
Al2780 O2783   1.806   .     S
Al2780 O2782   1.806   .     S
C2785  C2786   1.493   .     S
C2787  C2788   1.493   .     S
C2789  C2790   1.493   .     S
C2791  C2792   1.493   .     S
C2793  C2794   1.493   .     S
C2795  C2796   1.493   .     S
C2797  C2798   1.493   .     S
C2799  C2800   1.493   .     S
O2801  Al2833  1.919   .     S
O2801  C2842   1.319   .     A
C2802  C2897   1.347   .     A
C2802  C798    1.379   1_546 A
O2803  Al2835  1.919   .     S
O2803  C2844   1.319   .     A
C2804  C2843   1.347   .     A
C2804  C2816   1.379   .     A
O2805  Al2834  1.919   .     S
O2805  C2902   1.319   .     A
C2806  C2845   1.347   .     A
C2806  C122    1.379   1_556 A
O2807  Al2836  1.919   .     S
O2807  C2848   1.319   .     A
C2808  C2847   1.347   .     A
C2808  C3036   1.379   .     A
O2809  Al2835  1.919   .     S
O2809  C2906   1.319   .     A
C2810  C2849   1.347   .     A
O2811  Al2833  1.919   .     S
O2811  C2852   1.319   .     A
C2812  C2851   1.347   .     A
C2812  C3480   1.379   1_545 A
O2813  Al2836  1.919   .     S
O2813  C2854   1.319   .     A
C2814  C2909   1.347   .     A
O2815  Al2834  1.919   .     S
O2815  C2856   1.319   .     A
C2816  C2855   1.347   .     A
O2817  Al2835  1.919   .     S
O2817  C2910   1.319   .     A
C2818  C2853   1.347   .     A
O2819  Al2833  1.919   .     S
O2819  C2856   1.319   .     A
C2820  C2855   1.347   .     A
C2820  C2832   1.379   .     A
O2821  Al2836  1.919   .     S
O2821  C2850   1.319   .     A
C2822  C2905   1.347   .     A
O2823  Al2834  1.919   .     S
O2823  C2852   1.319   .     A
C2824  C2851   1.347   .     A
C2824  C3500   1.379   1_545 A
O2825  Al2833  1.919   .     S
O2825  C2846   1.319   .     A
C2826  C2901   1.347   .     A
C2826  C134    1.379   1_556 A
O2827  Al2835  1.919   .     S
O2827  C2848   1.319   .     A
C2828  C2847   1.347   .     A
C2828  C3048   1.379   .     A
O2829  Al2834  1.919   .     S
O2829  C2898   1.319   .     A
C2830  C2841   1.347   .     A
C2830  C802    1.379   1_546 A
O2831  Al2836  1.919   .     S
O2831  C2844   1.319   .     A
C2832  C2843   1.347   .     A
Al2833 O2837   1.806   .     S
Al2833 O2840   1.806   .     S
Al2834 O2893   1.806   .     S
Al2834 O2840   1.806   .     S
Al2835 O2895   1.806   .     S
Al2835 O2838   1.806   .     S
Al2836 O2839   1.806   .     S
Al2836 O2838   1.806   .     S
C2841  C2842   1.493   .     S
C2843  C2844   1.493   .     S
C2845  C2846   1.493   .     S
C2847  C2848   1.493   .     S
C2849  C2850   1.493   .     S
C2851  C2852   1.493   .     S
C2853  C2854   1.493   .     S
C2855  C2856   1.493   .     S
O2857  Al2889  1.919   .     S
O2857  C2898   1.319   .     A
C2858  C2729   1.347   1_655 A
C2858  C854    1.379   1_546 A
O2859  Al2891  1.919   .     S
O2859  C2900   1.319   .     A
C2860  C2899   1.347   .     A
C2860  C2872   1.379   .     A
O2861  Al2890  1.919   .     S
O2861  C2734   1.319   1_655 A
C2862  C2901   1.347   .     A
C2862  C178    1.379   1_556 A
O2863  Al2892  1.919   .     S
O2863  C2904   1.319   .     A
C2864  C2903   1.347   .     A
C2864  C3092   1.379   .     A
O2865  Al2891  1.919   .     S
O2865  C2738   1.319   1_655 A
C2866  C2905   1.347   .     A
O2867  Al2889  1.919   .     S
O2867  C2908   1.319   .     A
C2868  C2907   1.347   .     A
C2868  C3536   1.379   1_545 A
O2869  Al2892  1.919   .     S
O2869  C2910   1.319   .     A
C2870  C2741   1.347   1_655 A
O2871  Al2890  1.919   .     S
O2871  C2912   1.319   .     A
C2872  C2911   1.347   .     A
O2873  Al2891  1.919   .     S
O2873  C2742   1.319   1_655 A
C2874  C2909   1.347   .     A
O2875  Al2889  1.919   .     S
O2875  C2912   1.319   .     A
C2876  C2911   1.347   .     A
C2876  C2888   1.379   .     A
O2877  Al2892  1.919   .     S
O2877  C2906   1.319   .     A
C2878  C2737   1.347   1_655 A
O2879  Al2890  1.919   .     S
O2879  C2908   1.319   .     A
C2880  C2907   1.347   .     A
C2880  C3556   1.379   1_545 A
O2881  Al2889  1.919   .     S
O2881  C2902   1.319   .     A
C2882  C2733   1.347   1_655 A
C2882  C190    1.379   1_556 A
O2883  Al2891  1.919   .     S
O2883  C2904   1.319   .     A
C2884  C2903   1.347   .     A
C2884  C3104   1.379   .     A
O2885  Al2890  1.919   .     S
O2885  C2730   1.319   1_655 A
C2886  C2897   1.347   .     A
C2886  C858    1.379   1_546 A
O2887  Al2892  1.919   .     S
O2887  C2900   1.319   .     A
C2888  C2899   1.347   .     A
Al2889 O2893   1.806   .     S
Al2889 O2896   1.806   .     S
Al2890 O2725   1.806   1_655 S
Al2890 O2896   1.806   .     S
Al2891 O2727   1.806   1_655 S
Al2891 O2894   1.806   .     S
Al2892 O2895   1.806   .     S
Al2892 O2894   1.806   .     S
C2897  C2898   1.493   .     S
C2899  C2900   1.493   .     S
C2901  C2902   1.493   .     S
C2903  C2904   1.493   .     S
C2905  C2906   1.493   .     S
C2907  C2908   1.493   .     S
C2909  C2910   1.493   .     S
C2911  C2912   1.493   .     S
O2913  Al2945  1.919   .     S
O2913  C2954   1.319   .     A
C2914  C3009   1.347   .     A
C2914  C14     1.379   1_556 A
O2915  Al2947  1.919   .     S
O2915  C2956   1.319   .     A
C2916  C2955   1.347   .     A
C2916  C2928   1.379   .     A
O2917  Al2946  1.919   .     S
O2917  C3014   1.319   .     A
C2918  C2957   1.347   .     A
C2918  C234    1.379   1_556 A
O2919  Al2948  1.919   .     S
O2919  C2960   1.319   .     A
C2920  C2959   1.347   .     A
C2920  C3148   1.379   .     A
O2921  Al2947  1.919   .     S
O2921  C3018   1.319   .     A
C2922  C2961   1.347   .     A
O2923  Al2945  1.919   .     S
O2923  C2964   1.319   .     A
C2924  C2963   1.347   .     A
O2925  Al2948  1.919   .     S
O2925  C2966   1.319   .     A
C2926  C3021   1.347   .     A
O2927  Al2946  1.919   .     S
O2927  C2968   1.319   .     A
C2928  C2967   1.347   .     A
O2929  Al2947  1.919   .     S
O2929  C3022   1.319   .     A
C2930  C2965   1.347   .     A
O2931  Al2945  1.919   .     S
O2931  C2968   1.319   .     A
C2932  C2967   1.347   .     A
C2932  C2944   1.379   .     A
O2933  Al2948  1.919   .     S
O2933  C2962   1.319   .     A
C2934  C3017   1.347   .     A
O2935  Al2946  1.919   .     S
O2935  C2964   1.319   .     A
C2936  C2963   1.347   .     A
O2937  Al2945  1.919   .     S
O2937  C2958   1.319   .     A
C2938  C3013   1.347   .     A
C2938  C246    1.379   1_556 A
O2939  Al2947  1.919   .     S
O2939  C2960   1.319   .     A
C2940  C2959   1.347   .     A
C2940  C3160   1.379   .     A
O2941  Al2946  1.919   .     S
O2941  C3010   1.319   .     A
C2942  C2953   1.347   .     A
C2942  C18     1.379   1_556 A
O2943  Al2948  1.919   .     S
O2943  C2956   1.319   .     A
C2944  C2955   1.347   .     A
Al2945 O2949   1.806   .     S
Al2945 O2952   1.806   .     S
Al2946 O3005   1.806   .     S
Al2946 O2952   1.806   .     S
Al2947 O3007   1.806   .     S
Al2947 O2950   1.806   .     S
Al2948 O2951   1.806   .     S
Al2948 O2950   1.806   .     S
O2949  Al3114  1.806   1_455 S
O2951  Al3115  1.806   1_455 S
C2953  C3082   1.347   1_455 A
C2953  C2954   1.493   .     S
C2954  O3109   1.319   1_455 A
C2955  C2956   1.493   .     S
C2957  C3106   1.347   1_455 A
C2957  C2958   1.493   .     S
C2958  O3085   1.319   1_455 A
C2959  C2960   1.493   .     S
C2961  C3102   1.347   1_455 A
C2961  C2962   1.493   .     S
C2962  O3089   1.319   1_455 A
C2963  C2964   1.493   .     S
C2965  C3094   1.347   1_455 A
C2965  C2966   1.493   .     S
C2966  O3097   1.319   1_455 A
C2967  C2968   1.493   .     S
O2969  Al3001  1.919   .     S
O2969  C3010   1.319   .     A
C2970  C3065   1.347   .     A
C2970  C70     1.379   1_556 A
O2971  Al3003  1.919   .     S
O2971  C3012   1.319   .     A
C2972  C3011   1.347   .     A
C2972  C2984   1.379   .     A
O2973  Al3002  1.919   .     S
O2973  C3070   1.319   .     A
C2974  C3013   1.347   .     A
C2974  C290    1.379   1_556 A
O2975  Al3004  1.919   .     S
O2975  C3016   1.319   .     A
C2976  C3015   1.347   .     A
C2976  C3204   1.379   .     A
O2977  Al3003  1.919   .     S
O2977  C3074   1.319   .     A
C2978  C3017   1.347   .     A
O2979  Al3001  1.919   .     S
O2979  C3020   1.319   .     A
C2980  C3019   1.347   .     A
O2981  Al3004  1.919   .     S
O2981  C3022   1.319   .     A
C2982  C3077   1.347   .     A
O2983  Al3002  1.919   .     S
O2983  C3024   1.319   .     A
C2984  C3023   1.347   .     A
O2985  Al3003  1.919   .     S
O2985  C3078   1.319   .     A
C2986  C3021   1.347   .     A
O2987  Al3001  1.919   .     S
O2987  C3024   1.319   .     A
C2988  C3023   1.347   .     A
C2988  C3000   1.379   .     A
O2989  Al3004  1.919   .     S
O2989  C3018   1.319   .     A
C2990  C3073   1.347   .     A
O2991  Al3002  1.919   .     S
O2991  C3020   1.319   .     A
C2992  C3019   1.347   .     A
O2993  Al3001  1.919   .     S
O2993  C3014   1.319   .     A
C2994  C3069   1.347   .     A
C2994  C302    1.379   1_556 A
O2995  Al3003  1.919   .     S
O2995  C3016   1.319   .     A
C2996  C3015   1.347   .     A
C2996  C3216   1.379   .     A
O2997  Al3002  1.919   .     S
O2997  C3066   1.319   .     A
C2998  C3009   1.347   .     A
C2998  C74     1.379   1_556 A
O2999  Al3004  1.919   .     S
O2999  C3012   1.319   .     A
C3000  C3011   1.347   .     A
Al3001 O3005   1.806   .     S
Al3001 O3008   1.806   .     S
Al3002 O3061   1.806   .     S
Al3002 O3008   1.806   .     S
Al3003 O3063   1.806   .     S
Al3003 O3006   1.806   .     S
Al3004 O3007   1.806   .     S
Al3004 O3006   1.806   .     S
C3009  C3010   1.493   .     S
C3011  C3012   1.493   .     S
C3013  C3014   1.493   .     S
C3015  C3016   1.493   .     S
C3017  C3018   1.493   .     S
C3019  C3020   1.493   .     S
C3021  C3022   1.493   .     S
C3023  C3024   1.493   .     S
O3025  Al3057  1.919   .     S
O3025  C3066   1.319   .     A
C3026  C3121   1.347   .     A
C3026  C126    1.379   1_556 A
O3027  Al3059  1.919   .     S
O3027  C3068   1.319   .     A
C3028  C3067   1.347   .     A
C3028  C3040   1.379   .     A
O3029  Al3058  1.919   .     S
O3029  C3126   1.319   .     A
C3030  C3069   1.347   .     A
C3030  C346    1.379   1_556 A
O3031  Al3060  1.919   .     S
O3031  C3072   1.319   .     A
C3032  C3071   1.347   .     A
C3032  C3260   1.379   .     A
O3033  Al3059  1.919   .     S
O3033  C3130   1.319   .     A
C3034  C3073   1.347   .     A
O3035  Al3057  1.919   .     S
O3035  C3076   1.319   .     A
C3036  C3075   1.347   .     A
O3037  Al3060  1.919   .     S
O3037  C3078   1.319   .     A
C3038  C3133   1.347   .     A
O3039  Al3058  1.919   .     S
O3039  C3080   1.319   .     A
C3040  C3079   1.347   .     A
O3041  Al3059  1.919   .     S
O3041  C3134   1.319   .     A
C3042  C3077   1.347   .     A
O3043  Al3057  1.919   .     S
O3043  C3080   1.319   .     A
C3044  C3079   1.347   .     A
C3044  C3056   1.379   .     A
O3045  Al3060  1.919   .     S
O3045  C3074   1.319   .     A
C3046  C3129   1.347   .     A
O3047  Al3058  1.919   .     S
O3047  C3076   1.319   .     A
C3048  C3075   1.347   .     A
O3049  Al3057  1.919   .     S
O3049  C3070   1.319   .     A
C3050  C3125   1.347   .     A
C3050  C358    1.379   1_556 A
O3051  Al3059  1.919   .     S
O3051  C3072   1.319   .     A
C3052  C3071   1.347   .     A
C3052  C3272   1.379   .     A
O3053  Al3058  1.919   .     S
O3053  C3122   1.319   .     A
C3054  C3065   1.347   .     A
C3054  C130    1.379   1_556 A
O3055  Al3060  1.919   .     S
O3055  C3068   1.319   .     A
C3056  C3067   1.347   .     A
Al3057 O3061   1.806   .     S
Al3057 O3064   1.806   .     S
Al3058 O3117   1.806   .     S
Al3058 O3064   1.806   .     S
Al3059 O3119   1.806   .     S
Al3059 O3062   1.806   .     S
Al3060 O3063   1.806   .     S
Al3060 O3062   1.806   .     S
C3065  C3066   1.493   .     S
C3067  C3068   1.493   .     S
C3069  C3070   1.493   .     S
C3071  C3072   1.493   .     S
C3073  C3074   1.493   .     S
C3075  C3076   1.493   .     S
C3077  C3078   1.493   .     S
C3079  C3080   1.493   .     S
O3081  Al3113  1.919   .     S
O3081  C3122   1.319   .     A
C3082  C2953   1.347   1_655 A
C3082  C182    1.379   1_556 A
O3083  Al3115  1.919   .     S
O3083  C3124   1.319   .     A
C3084  C3123   1.347   .     A
C3084  C3096   1.379   .     A
O3085  Al3114  1.919   .     S
O3085  C2958   1.319   1_655 A
C3086  C3125   1.347   .     A
C3086  C402    1.379   1_556 A
O3087  Al3116  1.919   .     S
O3087  C3128   1.319   .     A
C3088  C3127   1.347   .     A
C3088  C3316   1.379   .     A
O3089  Al3115  1.919   .     S
O3089  C2962   1.319   1_655 A
C3090  C3129   1.347   .     A
O3091  Al3113  1.919   .     S
O3091  C3132   1.319   .     A
C3092  C3131   1.347   .     A
O3093  Al3116  1.919   .     S
O3093  C3134   1.319   .     A
C3094  C2965   1.347   1_655 A
O3095  Al3114  1.919   .     S
O3095  C3136   1.319   .     A
C3096  C3135   1.347   .     A
O3097  Al3115  1.919   .     S
O3097  C2966   1.319   1_655 A
C3098  C3133   1.347   .     A
O3099  Al3113  1.919   .     S
O3099  C3136   1.319   .     A
C3100  C3135   1.347   .     A
C3100  C3112   1.379   .     A
O3101  Al3116  1.919   .     S
O3101  C3130   1.319   .     A
C3102  C2961   1.347   1_655 A
O3103  Al3114  1.919   .     S
O3103  C3132   1.319   .     A
C3104  C3131   1.347   .     A
O3105  Al3113  1.919   .     S
O3105  C3126   1.319   .     A
C3106  C2957   1.347   1_655 A
C3106  C414    1.379   1_556 A
O3107  Al3115  1.919   .     S
O3107  C3128   1.319   .     A
C3108  C3127   1.347   .     A
C3108  C3328   1.379   .     A
O3109  Al3114  1.919   .     S
O3109  C2954   1.319   1_655 A
C3110  C3121   1.347   .     A
C3110  C186    1.379   1_556 A
O3111  Al3116  1.919   .     S
O3111  C3124   1.319   .     A
C3112  C3123   1.347   .     A
Al3113 O3117   1.806   .     S
Al3113 O3120   1.806   .     S
Al3114 O2949   1.806   1_655 S
Al3114 O3120   1.806   .     S
Al3115 O2951   1.806   1_655 S
Al3115 O3118   1.806   .     S
Al3116 O3119   1.806   .     S
Al3116 O3118   1.806   .     S
C3121  C3122   1.493   .     S
C3123  C3124   1.493   .     S
C3125  C3126   1.493   .     S
C3127  C3128   1.493   .     S
C3129  C3130   1.493   .     S
C3131  C3132   1.493   .     S
C3133  C3134   1.493   .     S
C3135  C3136   1.493   .     S
O3137  Al3169  1.919   .     S
O3137  C3178   1.319   .     A
C3138  C3233   1.347   .     A
C3138  C238    1.379   1_556 A
O3139  Al3171  1.919   .     S
O3139  C3180   1.319   .     A
C3140  C3179   1.347   .     A
C3140  C3152   1.379   .     A
O3141  Al3170  1.919   .     S
O3141  C3238   1.319   .     A
C3142  C3181   1.347   .     A
C3142  C458    1.379   1_556 A
O3143  Al3172  1.919   .     S
O3143  C3184   1.319   .     A
C3144  C3183   1.347   .     A
C3144  C3372   1.379   .     A
O3145  Al3171  1.919   .     S
O3145  C3242   1.319   .     A
C3146  C3185   1.347   .     A
O3147  Al3169  1.919   .     S
O3147  C3188   1.319   .     A
C3148  C3187   1.347   .     A
O3149  Al3172  1.919   .     S
O3149  C3190   1.319   .     A
C3150  C3245   1.347   .     A
O3151  Al3170  1.919   .     S
O3151  C3192   1.319   .     A
C3152  C3191   1.347   .     A
O3153  Al3171  1.919   .     S
O3153  C3246   1.319   .     A
C3154  C3189   1.347   .     A
O3155  Al3169  1.919   .     S
O3155  C3192   1.319   .     A
C3156  C3191   1.347   .     A
C3156  C3168   1.379   .     A
O3157  Al3172  1.919   .     S
O3157  C3186   1.319   .     A
C3158  C3241   1.347   .     A
O3159  Al3170  1.919   .     S
O3159  C3188   1.319   .     A
C3160  C3187   1.347   .     A
O3161  Al3169  1.919   .     S
O3161  C3182   1.319   .     A
C3162  C3237   1.347   .     A
C3162  C470    1.379   1_556 A
O3163  Al3171  1.919   .     S
O3163  C3184   1.319   .     A
C3164  C3183   1.347   .     A
C3164  C3384   1.379   .     A
O3165  Al3170  1.919   .     S
O3165  C3234   1.319   .     A
C3166  C3177   1.347   .     A
C3166  C242    1.379   1_556 A
O3167  Al3172  1.919   .     S
O3167  C3180   1.319   .     A
C3168  C3179   1.347   .     A
Al3169 O3173   1.806   .     S
Al3169 O3176   1.806   .     S
Al3170 O3229   1.806   .     S
Al3170 O3176   1.806   .     S
Al3171 O3231   1.806   .     S
Al3171 O3174   1.806   .     S
Al3172 O3175   1.806   .     S
Al3172 O3174   1.806   .     S
O3173  Al3338  1.806   1_455 S
O3175  Al3339  1.806   1_455 S
C3177  C3306   1.347   1_455 A
C3177  C3178   1.493   .     S
C3178  O3333   1.319   1_455 A
C3179  C3180   1.493   .     S
C3181  C3330   1.347   1_455 A
C3181  C3182   1.493   .     S
C3182  O3309   1.319   1_455 A
C3183  C3184   1.493   .     S
C3185  C3326   1.347   1_455 A
C3185  C3186   1.493   .     S
C3186  O3313   1.319   1_455 A
C3187  C3188   1.493   .     S
C3189  C3318   1.347   1_455 A
C3189  C3190   1.493   .     S
C3190  O3321   1.319   1_455 A
C3191  C3192   1.493   .     S
O3193  Al3225  1.919   .     S
O3193  C3234   1.319   .     A
C3194  C3289   1.347   .     A
C3194  C294    1.379   1_556 A
O3195  Al3227  1.919   .     S
O3195  C3236   1.319   .     A
C3196  C3235   1.347   .     A
C3196  C3208   1.379   .     A
O3197  Al3226  1.919   .     S
O3197  C3294   1.319   .     A
C3198  C3237   1.347   .     A
C3198  C514    1.379   1_556 A
O3199  Al3228  1.919   .     S
O3199  C3240   1.319   .     A
C3200  C3239   1.347   .     A
C3200  C3428   1.379   .     A
O3201  Al3227  1.919   .     S
O3201  C3298   1.319   .     A
C3202  C3241   1.347   .     A
O3203  Al3225  1.919   .     S
O3203  C3244   1.319   .     A
C3204  C3243   1.347   .     A
O3205  Al3228  1.919   .     S
O3205  C3246   1.319   .     A
C3206  C3301   1.347   .     A
O3207  Al3226  1.919   .     S
O3207  C3248   1.319   .     A
C3208  C3247   1.347   .     A
O3209  Al3227  1.919   .     S
O3209  C3302   1.319   .     A
C3210  C3245   1.347   .     A
O3211  Al3225  1.919   .     S
O3211  C3248   1.319   .     A
C3212  C3247   1.347   .     A
C3212  C3224   1.379   .     A
O3213  Al3228  1.919   .     S
O3213  C3242   1.319   .     A
C3214  C3297   1.347   .     A
O3215  Al3226  1.919   .     S
O3215  C3244   1.319   .     A
C3216  C3243   1.347   .     A
O3217  Al3225  1.919   .     S
O3217  C3238   1.319   .     A
C3218  C3293   1.347   .     A
C3218  C526    1.379   1_556 A
O3219  Al3227  1.919   .     S
O3219  C3240   1.319   .     A
C3220  C3239   1.347   .     A
C3220  C3440   1.379   .     A
O3221  Al3226  1.919   .     S
O3221  C3290   1.319   .     A
C3222  C3233   1.347   .     A
C3222  C298    1.379   1_556 A
O3223  Al3228  1.919   .     S
O3223  C3236   1.319   .     A
C3224  C3235   1.347   .     A
Al3225 O3229   1.806   .     S
Al3225 O3232   1.806   .     S
Al3226 O3285   1.806   .     S
Al3226 O3232   1.806   .     S
Al3227 O3287   1.806   .     S
Al3227 O3230   1.806   .     S
Al3228 O3231   1.806   .     S
Al3228 O3230   1.806   .     S
C3233  C3234   1.493   .     S
C3235  C3236   1.493   .     S
C3237  C3238   1.493   .     S
C3239  C3240   1.493   .     S
C3241  C3242   1.493   .     S
C3243  C3244   1.493   .     S
C3245  C3246   1.493   .     S
C3247  C3248   1.493   .     S
O3249  Al3281  1.919   .     S
O3249  C3290   1.319   .     A
C3250  C3345   1.347   .     A
C3250  C350    1.379   1_556 A
O3251  Al3283  1.919   .     S
O3251  C3292   1.319   .     A
C3252  C3291   1.347   .     A
C3252  C3264   1.379   .     A
O3253  Al3282  1.919   .     S
O3253  C3350   1.319   .     A
C3254  C3293   1.347   .     A
C3254  C570    1.379   1_556 A
O3255  Al3284  1.919   .     S
O3255  C3296   1.319   .     A
C3256  C3295   1.347   .     A
C3256  C3484   1.379   .     A
O3257  Al3283  1.919   .     S
O3257  C3354   1.319   .     A
C3258  C3297   1.347   .     A
O3259  Al3281  1.919   .     S
O3259  C3300   1.319   .     A
C3260  C3299   1.347   .     A
O3261  Al3284  1.919   .     S
O3261  C3302   1.319   .     A
C3262  C3357   1.347   .     A
O3263  Al3282  1.919   .     S
O3263  C3304   1.319   .     A
C3264  C3303   1.347   .     A
O3265  Al3283  1.919   .     S
O3265  C3358   1.319   .     A
C3266  C3301   1.347   .     A
O3267  Al3281  1.919   .     S
O3267  C3304   1.319   .     A
C3268  C3303   1.347   .     A
C3268  C3280   1.379   .     A
O3269  Al3284  1.919   .     S
O3269  C3298   1.319   .     A
C3270  C3353   1.347   .     A
O3271  Al3282  1.919   .     S
O3271  C3300   1.319   .     A
C3272  C3299   1.347   .     A
O3273  Al3281  1.919   .     S
O3273  C3294   1.319   .     A
C3274  C3349   1.347   .     A
C3274  C582    1.379   1_556 A
O3275  Al3283  1.919   .     S
O3275  C3296   1.319   .     A
C3276  C3295   1.347   .     A
C3276  C3496   1.379   .     A
O3277  Al3282  1.919   .     S
O3277  C3346   1.319   .     A
C3278  C3289   1.347   .     A
C3278  C354    1.379   1_556 A
O3279  Al3284  1.919   .     S
O3279  C3292   1.319   .     A
C3280  C3291   1.347   .     A
Al3281 O3285   1.806   .     S
Al3281 O3288   1.806   .     S
Al3282 O3341   1.806   .     S
Al3282 O3288   1.806   .     S
Al3283 O3343   1.806   .     S
Al3283 O3286   1.806   .     S
Al3284 O3287   1.806   .     S
Al3284 O3286   1.806   .     S
C3289  C3290   1.493   .     S
C3291  C3292   1.493   .     S
C3293  C3294   1.493   .     S
C3295  C3296   1.493   .     S
C3297  C3298   1.493   .     S
C3299  C3300   1.493   .     S
C3301  C3302   1.493   .     S
C3303  C3304   1.493   .     S
O3305  Al3337  1.919   .     S
O3305  C3346   1.319   .     A
C3306  C3177   1.347   1_655 A
C3306  C406    1.379   1_556 A
O3307  Al3339  1.919   .     S
O3307  C3348   1.319   .     A
C3308  C3347   1.347   .     A
C3308  C3320   1.379   .     A
O3309  Al3338  1.919   .     S
O3309  C3182   1.319   1_655 A
C3310  C3349   1.347   .     A
C3310  C626    1.379   1_556 A
O3311  Al3340  1.919   .     S
O3311  C3352   1.319   .     A
C3312  C3351   1.347   .     A
C3312  C3540   1.379   .     A
O3313  Al3339  1.919   .     S
O3313  C3186   1.319   1_655 A
C3314  C3353   1.347   .     A
O3315  Al3337  1.919   .     S
O3315  C3356   1.319   .     A
C3316  C3355   1.347   .     A
O3317  Al3340  1.919   .     S
O3317  C3358   1.319   .     A
C3318  C3189   1.347   1_655 A
O3319  Al3338  1.919   .     S
O3319  C3360   1.319   .     A
C3320  C3359   1.347   .     A
O3321  Al3339  1.919   .     S
O3321  C3190   1.319   1_655 A
C3322  C3357   1.347   .     A
O3323  Al3337  1.919   .     S
O3323  C3360   1.319   .     A
C3324  C3359   1.347   .     A
C3324  C3336   1.379   .     A
O3325  Al3340  1.919   .     S
O3325  C3354   1.319   .     A
C3326  C3185   1.347   1_655 A
O3327  Al3338  1.919   .     S
O3327  C3356   1.319   .     A
C3328  C3355   1.347   .     A
O3329  Al3337  1.919   .     S
O3329  C3350   1.319   .     A
C3330  C3181   1.347   1_655 A
C3330  C638    1.379   1_556 A
O3331  Al3339  1.919   .     S
O3331  C3352   1.319   .     A
C3332  C3351   1.347   .     A
C3332  C3552   1.379   .     A
O3333  Al3338  1.919   .     S
O3333  C3178   1.319   1_655 A
C3334  C3345   1.347   .     A
C3334  C410    1.379   1_556 A
O3335  Al3340  1.919   .     S
O3335  C3348   1.319   .     A
C3336  C3347   1.347   .     A
Al3337 O3341   1.806   .     S
Al3337 O3344   1.806   .     S
Al3338 O3173   1.806   1_655 S
Al3338 O3344   1.806   .     S
Al3339 O3175   1.806   1_655 S
Al3339 O3342   1.806   .     S
Al3340 O3343   1.806   .     S
Al3340 O3342   1.806   .     S
C3345  C3346   1.493   .     S
C3347  C3348   1.493   .     S
C3349  C3350   1.493   .     S
C3351  C3352   1.493   .     S
C3353  C3354   1.493   .     S
C3355  C3356   1.493   .     S
C3357  C3358   1.493   .     S
C3359  C3360   1.493   .     S
O3361  Al3393  1.919   .     S
O3361  C3402   1.319   .     A
C3362  C3457   1.347   .     A
C3362  C462    1.379   1_556 A
O3363  Al3395  1.919   .     S
O3363  C3404   1.319   .     A
C3364  C3403   1.347   .     A
C3364  C3376   1.379   .     A
O3365  Al3394  1.919   .     S
O3365  C3462   1.319   .     A
C3366  C3405   1.347   .     A
C3366  C682    1.379   1_556 A
O3367  Al3396  1.919   .     S
O3367  C3408   1.319   .     A
C3368  C3407   1.347   .     A
C3368  C2700   1.379   1_565 A
O3369  Al3395  1.919   .     S
O3369  C3466   1.319   .     A
C3370  C3409   1.347   .     A
O3371  Al3393  1.919   .     S
O3371  C3412   1.319   .     A
C3372  C3411   1.347   .     A
O3373  Al3396  1.919   .     S
O3373  C3414   1.319   .     A
C3374  C3469   1.347   .     A
C3374  C1794   1.379   1_565 A
O3375  Al3394  1.919   .     S
O3375  C3416   1.319   .     A
C3376  C3415   1.347   .     A
O3377  Al3395  1.919   .     S
O3377  C3470   1.319   .     A
C3378  C3413   1.347   .     A
C3378  C1822   1.379   1_565 A
O3379  Al3393  1.919   .     S
O3379  C3416   1.319   .     A
C3380  C3415   1.347   .     A
C3380  C3392   1.379   .     A
O3381  Al3396  1.919   .     S
O3381  C3410   1.319   .     A
C3382  C3465   1.347   .     A
O3383  Al3394  1.919   .     S
O3383  C3412   1.319   .     A
C3384  C3411   1.347   .     A
O3385  Al3393  1.919   .     S
O3385  C3406   1.319   .     A
C3386  C3461   1.347   .     A
C3386  C694    1.379   1_556 A
O3387  Al3395  1.919   .     S
O3387  C3408   1.319   .     A
C3388  C3407   1.347   .     A
C3388  C2712   1.379   1_565 A
O3389  Al3394  1.919   .     S
O3389  C3458   1.319   .     A
C3390  C3401   1.347   .     A
C3390  C466    1.379   1_556 A
O3391  Al3396  1.919   .     S
O3391  C3404   1.319   .     A
C3392  C3403   1.347   .     A
Al3393 O3397   1.806   .     S
Al3393 O3400   1.806   .     S
Al3394 O3453   1.806   .     S
Al3394 O3400   1.806   .     S
Al3395 O3455   1.806   .     S
Al3395 O3398   1.806   .     S
Al3396 O3399   1.806   .     S
Al3396 O3398   1.806   .     S
O3397  Al3562  1.806   1_455 S
O3399  Al3563  1.806   1_455 S
C3401  C3530   1.347   1_455 A
C3401  C3402   1.493   .     S
C3402  O3557   1.319   1_455 A
C3403  C3404   1.493   .     S
C3405  C3554   1.347   1_455 A
C3405  C3406   1.493   .     S
C3406  O3533   1.319   1_455 A
C3407  C3408   1.493   .     S
C3409  C3550   1.347   1_455 A
C3409  C3410   1.493   .     S
C3410  O3537   1.319   1_455 A
C3411  C3412   1.493   .     S
C3413  C3542   1.347   1_455 A
C3413  C3414   1.493   .     S
C3414  O3545   1.319   1_455 A
C3415  C3416   1.493   .     S
O3417  Al3449  1.919   .     S
O3417  C3458   1.319   .     A
C3418  C3513   1.347   .     A
C3418  C518    1.379   1_556 A
O3419  Al3451  1.919   .     S
O3419  C3460   1.319   .     A
C3420  C3459   1.347   .     A
C3420  C3432   1.379   .     A
O3421  Al3450  1.919   .     S
O3421  C3518   1.319   .     A
C3422  C3461   1.347   .     A
C3422  C738    1.379   1_556 A
O3423  Al3452  1.919   .     S
O3423  C3464   1.319   .     A
C3424  C3463   1.347   .     A
C3424  C2756   1.379   1_565 A
O3425  Al3451  1.919   .     S
O3425  C3522   1.319   .     A
C3426  C3465   1.347   .     A
O3427  Al3449  1.919   .     S
O3427  C3468   1.319   .     A
C3428  C3467   1.347   .     A
O3429  Al3452  1.919   .     S
O3429  C3470   1.319   .     A
C3430  C3525   1.347   .     A
C3430  C1850   1.379   1_565 A
O3431  Al3450  1.919   .     S
O3431  C3472   1.319   .     A
C3432  C3471   1.347   .     A
O3433  Al3451  1.919   .     S
O3433  C3526   1.319   .     A
C3434  C3469   1.347   .     A
C3434  C1878   1.379   1_565 A
O3435  Al3449  1.919   .     S
O3435  C3472   1.319   .     A
C3436  C3471   1.347   .     A
C3436  C3448   1.379   .     A
O3437  Al3452  1.919   .     S
O3437  C3466   1.319   .     A
C3438  C3521   1.347   .     A
O3439  Al3450  1.919   .     S
O3439  C3468   1.319   .     A
C3440  C3467   1.347   .     A
O3441  Al3449  1.919   .     S
O3441  C3462   1.319   .     A
C3442  C3517   1.347   .     A
C3442  C750    1.379   1_556 A
O3443  Al3451  1.919   .     S
O3443  C3464   1.319   .     A
C3444  C3463   1.347   .     A
C3444  C2768   1.379   1_565 A
O3445  Al3450  1.919   .     S
O3445  C3514   1.319   .     A
C3446  C3457   1.347   .     A
C3446  C522    1.379   1_556 A
O3447  Al3452  1.919   .     S
O3447  C3460   1.319   .     A
C3448  C3459   1.347   .     A
Al3449 O3453   1.806   .     S
Al3449 O3456   1.806   .     S
Al3450 O3509   1.806   .     S
Al3450 O3456   1.806   .     S
Al3451 O3511   1.806   .     S
Al3451 O3454   1.806   .     S
Al3452 O3455   1.806   .     S
Al3452 O3454   1.806   .     S
C3457  C3458   1.493   .     S
C3459  C3460   1.493   .     S
C3461  C3462   1.493   .     S
C3463  C3464   1.493   .     S
C3465  C3466   1.493   .     S
C3467  C3468   1.493   .     S
C3469  C3470   1.493   .     S
C3471  C3472   1.493   .     S
O3473  Al3505  1.919   .     S
O3473  C3514   1.319   .     A
C3474  C3569   1.347   .     A
C3474  C574    1.379   1_556 A
O3475  Al3507  1.919   .     S
O3475  C3516   1.319   .     A
C3476  C3515   1.347   .     A
C3476  C3488   1.379   .     A
O3477  Al3506  1.919   .     S
O3477  C3574   1.319   .     A
C3478  C3517   1.347   .     A
C3478  C794    1.379   1_556 A
O3479  Al3508  1.919   .     S
O3479  C3520   1.319   .     A
C3480  C3519   1.347   .     A
C3480  C2812   1.379   1_565 A
O3481  Al3507  1.919   .     S
O3481  C3578   1.319   .     A
C3482  C3521   1.347   .     A
O3483  Al3505  1.919   .     S
O3483  C3524   1.319   .     A
C3484  C3523   1.347   .     A
O3485  Al3508  1.919   .     S
O3485  C3526   1.319   .     A
C3486  C3581   1.347   .     A
C3486  C1906   1.379   1_565 A
O3487  Al3506  1.919   .     S
O3487  C3528   1.319   .     A
C3488  C3527   1.347   .     A
O3489  Al3507  1.919   .     S
O3489  C3582   1.319   .     A
C3490  C3525   1.347   .     A
C3490  C1934   1.379   1_565 A
O3491  Al3505  1.919   .     S
O3491  C3528   1.319   .     A
C3492  C3527   1.347   .     A
C3492  C3504   1.379   .     A
O3493  Al3508  1.919   .     S
O3493  C3522   1.319   .     A
C3494  C3577   1.347   .     A
O3495  Al3506  1.919   .     S
O3495  C3524   1.319   .     A
C3496  C3523   1.347   .     A
O3497  Al3505  1.919   .     S
O3497  C3518   1.319   .     A
C3498  C3573   1.347   .     A
C3498  C806    1.379   1_556 A
O3499  Al3507  1.919   .     S
O3499  C3520   1.319   .     A
C3500  C3519   1.347   .     A
C3500  C2824   1.379   1_565 A
O3501  Al3506  1.919   .     S
O3501  C3570   1.319   .     A
C3502  C3513   1.347   .     A
C3502  C578    1.379   1_556 A
O3503  Al3508  1.919   .     S
O3503  C3516   1.319   .     A
C3504  C3515   1.347   .     A
Al3505 O3509   1.806   .     S
Al3505 O3512   1.806   .     S
Al3506 O3565   1.806   .     S
Al3506 O3512   1.806   .     S
Al3507 O3567   1.806   .     S
Al3507 O3510   1.806   .     S
Al3508 O3511   1.806   .     S
Al3508 O3510   1.806   .     S
C3513  C3514   1.493   .     S
C3515  C3516   1.493   .     S
C3517  C3518   1.493   .     S
C3519  C3520   1.493   .     S
C3521  C3522   1.493   .     S
C3523  C3524   1.493   .     S
C3525  C3526   1.493   .     S
C3527  C3528   1.493   .     S
O3529  Al3561  1.919   .     S
O3529  C3570   1.319   .     A
C3530  C3401   1.347   1_655 A
C3530  C630    1.379   1_556 A
O3531  Al3563  1.919   .     S
O3531  C3572   1.319   .     A
C3532  C3571   1.347   .     A
C3532  C3544   1.379   .     A
O3533  Al3562  1.919   .     S
O3533  C3406   1.319   1_655 A
C3534  C3573   1.347   .     A
C3534  C850    1.379   1_556 A
O3535  Al3564  1.919   .     S
O3535  C3576   1.319   .     A
C3536  C3575   1.347   .     A
C3536  C2868   1.379   1_565 A
O3537  Al3563  1.919   .     S
O3537  C3410   1.319   1_655 A
C3538  C3577   1.347   .     A
O3539  Al3561  1.919   .     S
O3539  C3580   1.319   .     A
C3540  C3579   1.347   .     A
O3541  Al3564  1.919   .     S
O3541  C3582   1.319   .     A
C3542  C3413   1.347   1_655 A
C3542  C1962   1.379   1_565 A
O3543  Al3562  1.919   .     S
O3543  C3584   1.319   .     A
C3544  C3583   1.347   .     A
O3545  Al3563  1.919   .     S
O3545  C3414   1.319   1_655 A
C3546  C3581   1.347   .     A
C3546  C1990   1.379   1_565 A
O3547  Al3561  1.919   .     S
O3547  C3584   1.319   .     A
C3548  C3583   1.347   .     A
C3548  C3560   1.379   .     A
O3549  Al3564  1.919   .     S
O3549  C3578   1.319   .     A
C3550  C3409   1.347   1_655 A
O3551  Al3562  1.919   .     S
O3551  C3580   1.319   .     A
C3552  C3579   1.347   .     A
O3553  Al3561  1.919   .     S
O3553  C3574   1.319   .     A
C3554  C3405   1.347   1_655 A
C3554  C862    1.379   1_556 A
O3555  Al3563  1.919   .     S
O3555  C3576   1.319   .     A
C3556  C3575   1.347   .     A
C3556  C2880   1.379   1_565 A
O3557  Al3562  1.919   .     S
O3557  C3402   1.319   1_655 A
C3558  C3569   1.347   .     A
C3558  C634    1.379   1_556 A
O3559  Al3564  1.919   .     S
O3559  C3572   1.319   .     A
C3560  C3571   1.347   .     A
Al3561 O3565   1.806   .     S
Al3561 O3568   1.806   .     S
Al3562 O3397   1.806   1_655 S
Al3562 O3568   1.806   .     S
Al3563 O3399   1.806   1_655 S
Al3563 O3566   1.806   .     S
Al3564 O3567   1.806   .     S
Al3564 O3566   1.806   .     S
C3569  C3570   1.493   .     S
C3571  C3572   1.493   .     S
C3573  C3574   1.493   .     S
C3575  C3576   1.493   .     S
C3577  C3578   1.493   .     S
C3579  C3580   1.493   .     S
C3581  C3582   1.493   .     S
C3583  C3584   1.493   .     S
