data_SABWAU_4-4-4
_audit_creation_date              2020-05-22
_audit_creation_method            'Materials Studio'
_symmetry_space_group_name_H-M    'P1'
_symmetry_Int_Tables_number       1
_symmetry_cell_setting            triclinic
loop_
_symmetry_equiv_pos_as_xyz
  x,y,z
_cell_length_a                    78.0520
_cell_length_b                    30.4480
_cell_length_c                    26.3040
_cell_angle_alpha                 90.0000
_cell_angle_beta                  104.2400
_cell_angle_gamma                 90.0000
loop_
_atom_site_label
_atom_site_type_symbol
_atom_site_fract_x
_atom_site_fract_y
_atom_site_fract_z
_atom_site_U_iso_or_equiv
_atom_site_adp_type
_atom_site_occupancy
Al1    Al    0.24970   0.00000   0.24975   0.00000  Uiso   1.00
O2     O     0.00000   0.22250   0.18600   0.00000  Uiso   1.00
O3     O     0.01595   0.04325   0.23725   0.00000  Uiso   1.00
O4     O     0.10938   0.08000   0.01500   0.00000  Uiso   1.00
O5     O     0.02285   0.02475   0.16500   0.00000  Uiso   1.00
O6     O     0.10390   0.08750   0.09075   0.00000  Uiso   1.00
C7     C     0.02663   0.04475   0.21000   0.00000  Uiso   1.00
C8     C     0.09840   0.08125   0.04125   0.00000  Uiso   1.00
C9     C     0.05005   0.06925   0.03225   0.00000  Uiso   1.00
C10    C     0.07410   0.06450   0.21750   0.00000  Uiso   1.00
C11    C     0.06860   0.07500   0.05475   0.00000  Uiso   1.00
C12    C     0.05615   0.05025   0.19700   0.00000  Uiso   1.00
C13    C     0.04545   0.05275   0.23050   0.00000  Uiso   1.00
C14    C     0.08010   0.06800   0.02250   0.00000  Uiso   1.00
Al15   Al    0.12470   0.12500   0.24975   0.00000  Uiso   1.00
O16    O     0.12500   0.09750   0.18600   0.00000  Uiso   1.00
O17    O     0.14095   0.16825   0.23725   0.00000  Uiso   1.00
O18    O     0.23438   0.20500   0.01500   0.00000  Uiso   1.00
O19    O     0.14785   0.14975   0.16500   0.00000  Uiso   1.00
O20    O     0.22890   0.21250   0.09075   0.00000  Uiso   1.00
C21    C     0.15163   0.16975   0.21000   0.00000  Uiso   1.00
C22    C     0.22340   0.20625   0.04125   0.00000  Uiso   1.00
C23    C     0.17505   0.19425   0.03225   0.00000  Uiso   1.00
C24    C     0.19910   0.18950   0.21750   0.00000  Uiso   1.00
C25    C     0.19360   0.20000   0.05475   0.00000  Uiso   1.00
C26    C     0.18115   0.17525   0.19700   0.00000  Uiso   1.00
C27    C     0.17045   0.17775   0.23050   0.00000  Uiso   1.00
C28    C     0.20510   0.19300   0.02250   0.00000  Uiso   1.00
Al29   Al    0.24970   0.00000   0.12475   0.00000  Uiso   1.00
O30    O     0.00000   0.02750   0.06100   0.00000  Uiso   1.00
O31    O     0.01595   0.20675   0.11225   0.00000  Uiso   1.00
O32    O     0.10938   0.17000   0.14000   0.00000  Uiso   1.00
O33    O     0.02285   0.22525   0.04000   0.00000  Uiso   1.00
O34    O     0.10390   0.16250   0.21575   0.00000  Uiso   1.00
C35    C     0.02663   0.20525   0.08500   0.00000  Uiso   1.00
C36    C     0.09840   0.16875   0.16625   0.00000  Uiso   1.00
C37    C     0.05005   0.18075   0.15725   0.00000  Uiso   1.00
C38    C     0.07410   0.18550   0.09250   0.00000  Uiso   1.00
C39    C     0.06860   0.17500   0.17975   0.00000  Uiso   1.00
C40    C     0.05615   0.19975   0.07200   0.00000  Uiso   1.00
C41    C     0.04545   0.19725   0.10550   0.00000  Uiso   1.00
C42    C     0.08010   0.18200   0.14750   0.00000  Uiso   1.00
Al43   Al    0.12470   0.12500   0.12475   0.00000  Uiso   1.00
O44    O     0.12500   0.15250   0.06100   0.00000  Uiso   1.00
O45    O     0.14095   0.08175   0.11225   0.00000  Uiso   1.00
O46    O     0.23438   0.04500   0.14000   0.00000  Uiso   1.00
O47    O     0.14785   0.10025   0.04000   0.00000  Uiso   1.00
O48    O     0.22890   0.03750   0.21575   0.00000  Uiso   1.00
C49    C     0.15163   0.08025   0.08500   0.00000  Uiso   1.00
C50    C     0.22340   0.04375   0.16625   0.00000  Uiso   1.00
C51    C     0.17505   0.05575   0.15725   0.00000  Uiso   1.00
C52    C     0.19910   0.06050   0.09250   0.00000  Uiso   1.00
C53    C     0.19360   0.05000   0.17975   0.00000  Uiso   1.00
C54    C     0.18115   0.07475   0.07200   0.00000  Uiso   1.00
C55    C     0.17045   0.07225   0.10550   0.00000  Uiso   1.00
C56    C     0.20510   0.05700   0.14750   0.00000  Uiso   1.00
Al57   Al    0.49970   0.00000   0.24975   0.00000  Uiso   1.00
O58    O     0.25000   0.22250   0.18600   0.00000  Uiso   1.00
O59    O     0.26595   0.04325   0.23725   0.00000  Uiso   1.00
O60    O     0.35938   0.08000   0.01500   0.00000  Uiso   1.00
O61    O     0.27285   0.02475   0.16500   0.00000  Uiso   1.00
O62    O     0.35390   0.08750   0.09075   0.00000  Uiso   1.00
C63    C     0.27663   0.04475   0.21000   0.00000  Uiso   1.00
C64    C     0.34840   0.08125   0.04125   0.00000  Uiso   1.00
C65    C     0.30005   0.06925   0.03225   0.00000  Uiso   1.00
C66    C     0.32410   0.06450   0.21750   0.00000  Uiso   1.00
C67    C     0.31860   0.07500   0.05475   0.00000  Uiso   1.00
C68    C     0.30615   0.05025   0.19700   0.00000  Uiso   1.00
C69    C     0.29545   0.05275   0.23050   0.00000  Uiso   1.00
C70    C     0.33010   0.06800   0.02250   0.00000  Uiso   1.00
Al71   Al    0.37470   0.12500   0.24975   0.00000  Uiso   1.00
O72    O     0.37500   0.09750   0.18600   0.00000  Uiso   1.00
O73    O     0.39095   0.16825   0.23725   0.00000  Uiso   1.00
O74    O     0.48438   0.20500   0.01500   0.00000  Uiso   1.00
O75    O     0.39785   0.14975   0.16500   0.00000  Uiso   1.00
O76    O     0.47890   0.21250   0.09075   0.00000  Uiso   1.00
C77    C     0.40163   0.16975   0.21000   0.00000  Uiso   1.00
C78    C     0.47340   0.20625   0.04125   0.00000  Uiso   1.00
C79    C     0.42505   0.19425   0.03225   0.00000  Uiso   1.00
C80    C     0.44910   0.18950   0.21750   0.00000  Uiso   1.00
C81    C     0.44360   0.20000   0.05475   0.00000  Uiso   1.00
C82    C     0.43115   0.17525   0.19700   0.00000  Uiso   1.00
C83    C     0.42045   0.17775   0.23050   0.00000  Uiso   1.00
C84    C     0.45510   0.19300   0.02250   0.00000  Uiso   1.00
Al85   Al    0.49970   0.00000   0.12475   0.00000  Uiso   1.00
O86    O     0.25000   0.02750   0.06100   0.00000  Uiso   1.00
O87    O     0.26595   0.20675   0.11225   0.00000  Uiso   1.00
O88    O     0.35938   0.17000   0.14000   0.00000  Uiso   1.00
O89    O     0.27285   0.22525   0.04000   0.00000  Uiso   1.00
O90    O     0.35390   0.16250   0.21575   0.00000  Uiso   1.00
C91    C     0.27663   0.20525   0.08500   0.00000  Uiso   1.00
C92    C     0.34840   0.16875   0.16625   0.00000  Uiso   1.00
C93    C     0.30005   0.18075   0.15725   0.00000  Uiso   1.00
C94    C     0.32410   0.18550   0.09250   0.00000  Uiso   1.00
C95    C     0.31860   0.17500   0.17975   0.00000  Uiso   1.00
C96    C     0.30615   0.19975   0.07200   0.00000  Uiso   1.00
C97    C     0.29545   0.19725   0.10550   0.00000  Uiso   1.00
C98    C     0.33010   0.18200   0.14750   0.00000  Uiso   1.00
Al99   Al    0.37470   0.12500   0.12475   0.00000  Uiso   1.00
O100   O     0.37500   0.15250   0.06100   0.00000  Uiso   1.00
O101   O     0.39095   0.08175   0.11225   0.00000  Uiso   1.00
O102   O     0.48438   0.04500   0.14000   0.00000  Uiso   1.00
O103   O     0.39785   0.10025   0.04000   0.00000  Uiso   1.00
O104   O     0.47890   0.03750   0.21575   0.00000  Uiso   1.00
C105   C     0.40163   0.08025   0.08500   0.00000  Uiso   1.00
C106   C     0.47340   0.04375   0.16625   0.00000  Uiso   1.00
C107   C     0.42505   0.05575   0.15725   0.00000  Uiso   1.00
C108   C     0.44910   0.06050   0.09250   0.00000  Uiso   1.00
C109   C     0.44360   0.05000   0.17975   0.00000  Uiso   1.00
C110   C     0.43115   0.07475   0.07200   0.00000  Uiso   1.00
C111   C     0.42045   0.07225   0.10550   0.00000  Uiso   1.00
C112   C     0.45510   0.05700   0.14750   0.00000  Uiso   1.00
Al113  Al    0.74970   0.00000   0.24975   0.00000  Uiso   1.00
O114   O     0.50000   0.22250   0.18600   0.00000  Uiso   1.00
O115   O     0.51595   0.04325   0.23725   0.00000  Uiso   1.00
O116   O     0.60938   0.08000   0.01500   0.00000  Uiso   1.00
O117   O     0.52285   0.02475   0.16500   0.00000  Uiso   1.00
O118   O     0.60390   0.08750   0.09075   0.00000  Uiso   1.00
C119   C     0.52663   0.04475   0.21000   0.00000  Uiso   1.00
C120   C     0.59840   0.08125   0.04125   0.00000  Uiso   1.00
C121   C     0.55005   0.06925   0.03225   0.00000  Uiso   1.00
C122   C     0.57410   0.06450   0.21750   0.00000  Uiso   1.00
C123   C     0.56860   0.07500   0.05475   0.00000  Uiso   1.00
C124   C     0.55615   0.05025   0.19700   0.00000  Uiso   1.00
C125   C     0.54545   0.05275   0.23050   0.00000  Uiso   1.00
C126   C     0.58010   0.06800   0.02250   0.00000  Uiso   1.00
Al127  Al    0.62470   0.12500   0.24975   0.00000  Uiso   1.00
O128   O     0.62500   0.09750   0.18600   0.00000  Uiso   1.00
O129   O     0.64095   0.16825   0.23725   0.00000  Uiso   1.00
O130   O     0.73438   0.20500   0.01500   0.00000  Uiso   1.00
O131   O     0.64785   0.14975   0.16500   0.00000  Uiso   1.00
O132   O     0.72890   0.21250   0.09075   0.00000  Uiso   1.00
C133   C     0.65163   0.16975   0.21000   0.00000  Uiso   1.00
C134   C     0.72340   0.20625   0.04125   0.00000  Uiso   1.00
C135   C     0.67505   0.19425   0.03225   0.00000  Uiso   1.00
C136   C     0.69910   0.18950   0.21750   0.00000  Uiso   1.00
C137   C     0.69360   0.20000   0.05475   0.00000  Uiso   1.00
C138   C     0.68115   0.17525   0.19700   0.00000  Uiso   1.00
C139   C     0.67045   0.17775   0.23050   0.00000  Uiso   1.00
C140   C     0.70510   0.19300   0.02250   0.00000  Uiso   1.00
Al141  Al    0.74970   0.00000   0.12475   0.00000  Uiso   1.00
O142   O     0.50000   0.02750   0.06100   0.00000  Uiso   1.00
O143   O     0.51595   0.20675   0.11225   0.00000  Uiso   1.00
O144   O     0.60938   0.17000   0.14000   0.00000  Uiso   1.00
O145   O     0.52285   0.22525   0.04000   0.00000  Uiso   1.00
O146   O     0.60390   0.16250   0.21575   0.00000  Uiso   1.00
C147   C     0.52663   0.20525   0.08500   0.00000  Uiso   1.00
C148   C     0.59840   0.16875   0.16625   0.00000  Uiso   1.00
C149   C     0.55005   0.18075   0.15725   0.00000  Uiso   1.00
C150   C     0.57410   0.18550   0.09250   0.00000  Uiso   1.00
C151   C     0.56860   0.17500   0.17975   0.00000  Uiso   1.00
C152   C     0.55615   0.19975   0.07200   0.00000  Uiso   1.00
C153   C     0.54545   0.19725   0.10550   0.00000  Uiso   1.00
C154   C     0.58010   0.18200   0.14750   0.00000  Uiso   1.00
Al155  Al    0.62470   0.12500   0.12475   0.00000  Uiso   1.00
O156   O     0.62500   0.15250   0.06100   0.00000  Uiso   1.00
O157   O     0.64095   0.08175   0.11225   0.00000  Uiso   1.00
O158   O     0.73438   0.04500   0.14000   0.00000  Uiso   1.00
O159   O     0.64785   0.10025   0.04000   0.00000  Uiso   1.00
O160   O     0.72890   0.03750   0.21575   0.00000  Uiso   1.00
C161   C     0.65163   0.08025   0.08500   0.00000  Uiso   1.00
C162   C     0.72340   0.04375   0.16625   0.00000  Uiso   1.00
C163   C     0.67505   0.05575   0.15725   0.00000  Uiso   1.00
C164   C     0.69910   0.06050   0.09250   0.00000  Uiso   1.00
C165   C     0.69360   0.05000   0.17975   0.00000  Uiso   1.00
C166   C     0.68115   0.07475   0.07200   0.00000  Uiso   1.00
C167   C     0.67045   0.07225   0.10550   0.00000  Uiso   1.00
C168   C     0.70510   0.05700   0.14750   0.00000  Uiso   1.00
Al169  Al    0.99970   0.00000   0.24975   0.00000  Uiso   1.00
O170   O     0.75000   0.22250   0.18600   0.00000  Uiso   1.00
O171   O     0.76595   0.04325   0.23725   0.00000  Uiso   1.00
O172   O     0.85938   0.08000   0.01500   0.00000  Uiso   1.00
O173   O     0.77285   0.02475   0.16500   0.00000  Uiso   1.00
O174   O     0.85390   0.08750   0.09075   0.00000  Uiso   1.00
C175   C     0.77663   0.04475   0.21000   0.00000  Uiso   1.00
C176   C     0.84840   0.08125   0.04125   0.00000  Uiso   1.00
C177   C     0.80005   0.06925   0.03225   0.00000  Uiso   1.00
C178   C     0.82410   0.06450   0.21750   0.00000  Uiso   1.00
C179   C     0.81860   0.07500   0.05475   0.00000  Uiso   1.00
C180   C     0.80615   0.05025   0.19700   0.00000  Uiso   1.00
C181   C     0.79545   0.05275   0.23050   0.00000  Uiso   1.00
C182   C     0.83010   0.06800   0.02250   0.00000  Uiso   1.00
Al183  Al    0.87470   0.12500   0.24975   0.00000  Uiso   1.00
O184   O     0.87500   0.09750   0.18600   0.00000  Uiso   1.00
O185   O     0.89095   0.16825   0.23725   0.00000  Uiso   1.00
O186   O     0.98438   0.20500   0.01500   0.00000  Uiso   1.00
O187   O     0.89785   0.14975   0.16500   0.00000  Uiso   1.00
O188   O     0.97890   0.21250   0.09075   0.00000  Uiso   1.00
C189   C     0.90163   0.16975   0.21000   0.00000  Uiso   1.00
C190   C     0.97340   0.20625   0.04125   0.00000  Uiso   1.00
C191   C     0.92505   0.19425   0.03225   0.00000  Uiso   1.00
C192   C     0.94910   0.18950   0.21750   0.00000  Uiso   1.00
C193   C     0.94360   0.20000   0.05475   0.00000  Uiso   1.00
C194   C     0.93115   0.17525   0.19700   0.00000  Uiso   1.00
C195   C     0.92045   0.17775   0.23050   0.00000  Uiso   1.00
C196   C     0.95510   0.19300   0.02250   0.00000  Uiso   1.00
Al197  Al    0.99970   0.00000   0.12475   0.00000  Uiso   1.00
O198   O     0.75000   0.02750   0.06100   0.00000  Uiso   1.00
O199   O     0.76595   0.20675   0.11225   0.00000  Uiso   1.00
O200   O     0.85938   0.17000   0.14000   0.00000  Uiso   1.00
O201   O     0.77285   0.22525   0.04000   0.00000  Uiso   1.00
O202   O     0.85390   0.16250   0.21575   0.00000  Uiso   1.00
C203   C     0.77663   0.20525   0.08500   0.00000  Uiso   1.00
C204   C     0.84840   0.16875   0.16625   0.00000  Uiso   1.00
C205   C     0.80005   0.18075   0.15725   0.00000  Uiso   1.00
C206   C     0.82410   0.18550   0.09250   0.00000  Uiso   1.00
C207   C     0.81860   0.17500   0.17975   0.00000  Uiso   1.00
C208   C     0.80615   0.19975   0.07200   0.00000  Uiso   1.00
C209   C     0.79545   0.19725   0.10550   0.00000  Uiso   1.00
C210   C     0.83010   0.18200   0.14750   0.00000  Uiso   1.00
Al211  Al    0.87470   0.12500   0.12475   0.00000  Uiso   1.00
O212   O     0.87500   0.15250   0.06100   0.00000  Uiso   1.00
O213   O     0.89095   0.08175   0.11225   0.00000  Uiso   1.00
O214   O     0.98438   0.04500   0.14000   0.00000  Uiso   1.00
O215   O     0.89785   0.10025   0.04000   0.00000  Uiso   1.00
O216   O     0.97890   0.03750   0.21575   0.00000  Uiso   1.00
C217   C     0.90163   0.08025   0.08500   0.00000  Uiso   1.00
C218   C     0.97340   0.04375   0.16625   0.00000  Uiso   1.00
C219   C     0.92505   0.05575   0.15725   0.00000  Uiso   1.00
C220   C     0.94910   0.06050   0.09250   0.00000  Uiso   1.00
C221   C     0.94360   0.05000   0.17975   0.00000  Uiso   1.00
C222   C     0.93115   0.07475   0.07200   0.00000  Uiso   1.00
C223   C     0.92045   0.07225   0.10550   0.00000  Uiso   1.00
C224   C     0.95510   0.05700   0.14750   0.00000  Uiso   1.00
Al225  Al    0.24970   0.25000   0.24975   0.00000  Uiso   1.00
O226   O     0.00000   0.47250   0.18600   0.00000  Uiso   1.00
O227   O     0.01595   0.29325   0.23725   0.00000  Uiso   1.00
O228   O     0.10938   0.33000   0.01500   0.00000  Uiso   1.00
O229   O     0.02285   0.27475   0.16500   0.00000  Uiso   1.00
O230   O     0.10390   0.33750   0.09075   0.00000  Uiso   1.00
C231   C     0.02663   0.29475   0.21000   0.00000  Uiso   1.00
C232   C     0.09840   0.33125   0.04125   0.00000  Uiso   1.00
C233   C     0.05005   0.31925   0.03225   0.00000  Uiso   1.00
C234   C     0.07410   0.31450   0.21750   0.00000  Uiso   1.00
C235   C     0.06860   0.32500   0.05475   0.00000  Uiso   1.00
C236   C     0.05615   0.30025   0.19700   0.00000  Uiso   1.00
C237   C     0.04545   0.30275   0.23050   0.00000  Uiso   1.00
C238   C     0.08010   0.31800   0.02250   0.00000  Uiso   1.00
Al239  Al    0.12470   0.37500   0.24975   0.00000  Uiso   1.00
O240   O     0.12500   0.34750   0.18600   0.00000  Uiso   1.00
O241   O     0.14095   0.41825   0.23725   0.00000  Uiso   1.00
O242   O     0.23438   0.45500   0.01500   0.00000  Uiso   1.00
O243   O     0.14785   0.39975   0.16500   0.00000  Uiso   1.00
O244   O     0.22890   0.46250   0.09075   0.00000  Uiso   1.00
C245   C     0.15163   0.41975   0.21000   0.00000  Uiso   1.00
C246   C     0.22340   0.45625   0.04125   0.00000  Uiso   1.00
C247   C     0.17505   0.44425   0.03225   0.00000  Uiso   1.00
C248   C     0.19910   0.43950   0.21750   0.00000  Uiso   1.00
C249   C     0.19360   0.45000   0.05475   0.00000  Uiso   1.00
C250   C     0.18115   0.42525   0.19700   0.00000  Uiso   1.00
C251   C     0.17045   0.42775   0.23050   0.00000  Uiso   1.00
C252   C     0.20510   0.44300   0.02250   0.00000  Uiso   1.00
Al253  Al    0.24970   0.25000   0.12475   0.00000  Uiso   1.00
O254   O     0.00000   0.27750   0.06100   0.00000  Uiso   1.00
O255   O     0.01595   0.45675   0.11225   0.00000  Uiso   1.00
O256   O     0.10938   0.42000   0.14000   0.00000  Uiso   1.00
O257   O     0.02285   0.47525   0.04000   0.00000  Uiso   1.00
O258   O     0.10390   0.41250   0.21575   0.00000  Uiso   1.00
C259   C     0.02663   0.45525   0.08500   0.00000  Uiso   1.00
C260   C     0.09840   0.41875   0.16625   0.00000  Uiso   1.00
C261   C     0.05005   0.43075   0.15725   0.00000  Uiso   1.00
C262   C     0.07410   0.43550   0.09250   0.00000  Uiso   1.00
C263   C     0.06860   0.42500   0.17975   0.00000  Uiso   1.00
C264   C     0.05615   0.44975   0.07200   0.00000  Uiso   1.00
C265   C     0.04545   0.44725   0.10550   0.00000  Uiso   1.00
C266   C     0.08010   0.43200   0.14750   0.00000  Uiso   1.00
Al267  Al    0.12470   0.37500   0.12475   0.00000  Uiso   1.00
O268   O     0.12500   0.40250   0.06100   0.00000  Uiso   1.00
O269   O     0.14095   0.33175   0.11225   0.00000  Uiso   1.00
O270   O     0.23438   0.29500   0.14000   0.00000  Uiso   1.00
O271   O     0.14785   0.35025   0.04000   0.00000  Uiso   1.00
O272   O     0.22890   0.28750   0.21575   0.00000  Uiso   1.00
C273   C     0.15163   0.33025   0.08500   0.00000  Uiso   1.00
C274   C     0.22340   0.29375   0.16625   0.00000  Uiso   1.00
C275   C     0.17505   0.30575   0.15725   0.00000  Uiso   1.00
C276   C     0.19910   0.31050   0.09250   0.00000  Uiso   1.00
C277   C     0.19360   0.30000   0.17975   0.00000  Uiso   1.00
C278   C     0.18115   0.32475   0.07200   0.00000  Uiso   1.00
C279   C     0.17045   0.32225   0.10550   0.00000  Uiso   1.00
C280   C     0.20510   0.30700   0.14750   0.00000  Uiso   1.00
Al281  Al    0.49970   0.25000   0.24975   0.00000  Uiso   1.00
O282   O     0.25000   0.47250   0.18600   0.00000  Uiso   1.00
O283   O     0.26595   0.29325   0.23725   0.00000  Uiso   1.00
O284   O     0.35938   0.33000   0.01500   0.00000  Uiso   1.00
O285   O     0.27285   0.27475   0.16500   0.00000  Uiso   1.00
O286   O     0.35390   0.33750   0.09075   0.00000  Uiso   1.00
C287   C     0.27663   0.29475   0.21000   0.00000  Uiso   1.00
C288   C     0.34840   0.33125   0.04125   0.00000  Uiso   1.00
C289   C     0.30005   0.31925   0.03225   0.00000  Uiso   1.00
C290   C     0.32410   0.31450   0.21750   0.00000  Uiso   1.00
C291   C     0.31860   0.32500   0.05475   0.00000  Uiso   1.00
C292   C     0.30615   0.30025   0.19700   0.00000  Uiso   1.00
C293   C     0.29545   0.30275   0.23050   0.00000  Uiso   1.00
C294   C     0.33010   0.31800   0.02250   0.00000  Uiso   1.00
Al295  Al    0.37470   0.37500   0.24975   0.00000  Uiso   1.00
O296   O     0.37500   0.34750   0.18600   0.00000  Uiso   1.00
O297   O     0.39095   0.41825   0.23725   0.00000  Uiso   1.00
O298   O     0.48438   0.45500   0.01500   0.00000  Uiso   1.00
O299   O     0.39785   0.39975   0.16500   0.00000  Uiso   1.00
O300   O     0.47890   0.46250   0.09075   0.00000  Uiso   1.00
C301   C     0.40163   0.41975   0.21000   0.00000  Uiso   1.00
C302   C     0.47340   0.45625   0.04125   0.00000  Uiso   1.00
C303   C     0.42505   0.44425   0.03225   0.00000  Uiso   1.00
C304   C     0.44910   0.43950   0.21750   0.00000  Uiso   1.00
C305   C     0.44360   0.45000   0.05475   0.00000  Uiso   1.00
C306   C     0.43115   0.42525   0.19700   0.00000  Uiso   1.00
C307   C     0.42045   0.42775   0.23050   0.00000  Uiso   1.00
C308   C     0.45510   0.44300   0.02250   0.00000  Uiso   1.00
Al309  Al    0.49970   0.25000   0.12475   0.00000  Uiso   1.00
O310   O     0.25000   0.27750   0.06100   0.00000  Uiso   1.00
O311   O     0.26595   0.45675   0.11225   0.00000  Uiso   1.00
O312   O     0.35938   0.42000   0.14000   0.00000  Uiso   1.00
O313   O     0.27285   0.47525   0.04000   0.00000  Uiso   1.00
O314   O     0.35390   0.41250   0.21575   0.00000  Uiso   1.00
C315   C     0.27663   0.45525   0.08500   0.00000  Uiso   1.00
C316   C     0.34840   0.41875   0.16625   0.00000  Uiso   1.00
C317   C     0.30005   0.43075   0.15725   0.00000  Uiso   1.00
C318   C     0.32410   0.43550   0.09250   0.00000  Uiso   1.00
C319   C     0.31860   0.42500   0.17975   0.00000  Uiso   1.00
C320   C     0.30615   0.44975   0.07200   0.00000  Uiso   1.00
C321   C     0.29545   0.44725   0.10550   0.00000  Uiso   1.00
C322   C     0.33010   0.43200   0.14750   0.00000  Uiso   1.00
Al323  Al    0.37470   0.37500   0.12475   0.00000  Uiso   1.00
O324   O     0.37500   0.40250   0.06100   0.00000  Uiso   1.00
O325   O     0.39095   0.33175   0.11225   0.00000  Uiso   1.00
O326   O     0.48438   0.29500   0.14000   0.00000  Uiso   1.00
O327   O     0.39785   0.35025   0.04000   0.00000  Uiso   1.00
O328   O     0.47890   0.28750   0.21575   0.00000  Uiso   1.00
C329   C     0.40163   0.33025   0.08500   0.00000  Uiso   1.00
C330   C     0.47340   0.29375   0.16625   0.00000  Uiso   1.00
C331   C     0.42505   0.30575   0.15725   0.00000  Uiso   1.00
C332   C     0.44910   0.31050   0.09250   0.00000  Uiso   1.00
C333   C     0.44360   0.30000   0.17975   0.00000  Uiso   1.00
C334   C     0.43115   0.32475   0.07200   0.00000  Uiso   1.00
C335   C     0.42045   0.32225   0.10550   0.00000  Uiso   1.00
C336   C     0.45510   0.30700   0.14750   0.00000  Uiso   1.00
Al337  Al    0.74970   0.25000   0.24975   0.00000  Uiso   1.00
O338   O     0.50000   0.47250   0.18600   0.00000  Uiso   1.00
O339   O     0.51595   0.29325   0.23725   0.00000  Uiso   1.00
O340   O     0.60938   0.33000   0.01500   0.00000  Uiso   1.00
O341   O     0.52285   0.27475   0.16500   0.00000  Uiso   1.00
O342   O     0.60390   0.33750   0.09075   0.00000  Uiso   1.00
C343   C     0.52663   0.29475   0.21000   0.00000  Uiso   1.00
C344   C     0.59840   0.33125   0.04125   0.00000  Uiso   1.00
C345   C     0.55005   0.31925   0.03225   0.00000  Uiso   1.00
C346   C     0.57410   0.31450   0.21750   0.00000  Uiso   1.00
C347   C     0.56860   0.32500   0.05475   0.00000  Uiso   1.00
C348   C     0.55615   0.30025   0.19700   0.00000  Uiso   1.00
C349   C     0.54545   0.30275   0.23050   0.00000  Uiso   1.00
C350   C     0.58010   0.31800   0.02250   0.00000  Uiso   1.00
Al351  Al    0.62470   0.37500   0.24975   0.00000  Uiso   1.00
O352   O     0.62500   0.34750   0.18600   0.00000  Uiso   1.00
O353   O     0.64095   0.41825   0.23725   0.00000  Uiso   1.00
O354   O     0.73438   0.45500   0.01500   0.00000  Uiso   1.00
O355   O     0.64785   0.39975   0.16500   0.00000  Uiso   1.00
O356   O     0.72890   0.46250   0.09075   0.00000  Uiso   1.00
C357   C     0.65163   0.41975   0.21000   0.00000  Uiso   1.00
C358   C     0.72340   0.45625   0.04125   0.00000  Uiso   1.00
C359   C     0.67505   0.44425   0.03225   0.00000  Uiso   1.00
C360   C     0.69910   0.43950   0.21750   0.00000  Uiso   1.00
C361   C     0.69360   0.45000   0.05475   0.00000  Uiso   1.00
C362   C     0.68115   0.42525   0.19700   0.00000  Uiso   1.00
C363   C     0.67045   0.42775   0.23050   0.00000  Uiso   1.00
C364   C     0.70510   0.44300   0.02250   0.00000  Uiso   1.00
Al365  Al    0.74970   0.25000   0.12475   0.00000  Uiso   1.00
O366   O     0.50000   0.27750   0.06100   0.00000  Uiso   1.00
O367   O     0.51595   0.45675   0.11225   0.00000  Uiso   1.00
O368   O     0.60938   0.42000   0.14000   0.00000  Uiso   1.00
O369   O     0.52285   0.47525   0.04000   0.00000  Uiso   1.00
O370   O     0.60390   0.41250   0.21575   0.00000  Uiso   1.00
C371   C     0.52663   0.45525   0.08500   0.00000  Uiso   1.00
C372   C     0.59840   0.41875   0.16625   0.00000  Uiso   1.00
C373   C     0.55005   0.43075   0.15725   0.00000  Uiso   1.00
C374   C     0.57410   0.43550   0.09250   0.00000  Uiso   1.00
C375   C     0.56860   0.42500   0.17975   0.00000  Uiso   1.00
C376   C     0.55615   0.44975   0.07200   0.00000  Uiso   1.00
C377   C     0.54545   0.44725   0.10550   0.00000  Uiso   1.00
C378   C     0.58010   0.43200   0.14750   0.00000  Uiso   1.00
Al379  Al    0.62470   0.37500   0.12475   0.00000  Uiso   1.00
O380   O     0.62500   0.40250   0.06100   0.00000  Uiso   1.00
O381   O     0.64095   0.33175   0.11225   0.00000  Uiso   1.00
O382   O     0.73438   0.29500   0.14000   0.00000  Uiso   1.00
O383   O     0.64785   0.35025   0.04000   0.00000  Uiso   1.00
O384   O     0.72890   0.28750   0.21575   0.00000  Uiso   1.00
C385   C     0.65163   0.33025   0.08500   0.00000  Uiso   1.00
C386   C     0.72340   0.29375   0.16625   0.00000  Uiso   1.00
C387   C     0.67505   0.30575   0.15725   0.00000  Uiso   1.00
C388   C     0.69910   0.31050   0.09250   0.00000  Uiso   1.00
C389   C     0.69360   0.30000   0.17975   0.00000  Uiso   1.00
C390   C     0.68115   0.32475   0.07200   0.00000  Uiso   1.00
C391   C     0.67045   0.32225   0.10550   0.00000  Uiso   1.00
C392   C     0.70510   0.30700   0.14750   0.00000  Uiso   1.00
Al393  Al    0.99970   0.25000   0.24975   0.00000  Uiso   1.00
O394   O     0.75000   0.47250   0.18600   0.00000  Uiso   1.00
O395   O     0.76595   0.29325   0.23725   0.00000  Uiso   1.00
O396   O     0.85938   0.33000   0.01500   0.00000  Uiso   1.00
O397   O     0.77285   0.27475   0.16500   0.00000  Uiso   1.00
O398   O     0.85390   0.33750   0.09075   0.00000  Uiso   1.00
C399   C     0.77663   0.29475   0.21000   0.00000  Uiso   1.00
C400   C     0.84840   0.33125   0.04125   0.00000  Uiso   1.00
C401   C     0.80005   0.31925   0.03225   0.00000  Uiso   1.00
C402   C     0.82410   0.31450   0.21750   0.00000  Uiso   1.00
C403   C     0.81860   0.32500   0.05475   0.00000  Uiso   1.00
C404   C     0.80615   0.30025   0.19700   0.00000  Uiso   1.00
C405   C     0.79545   0.30275   0.23050   0.00000  Uiso   1.00
C406   C     0.83010   0.31800   0.02250   0.00000  Uiso   1.00
Al407  Al    0.87470   0.37500   0.24975   0.00000  Uiso   1.00
O408   O     0.87500   0.34750   0.18600   0.00000  Uiso   1.00
O409   O     0.89095   0.41825   0.23725   0.00000  Uiso   1.00
O410   O     0.98438   0.45500   0.01500   0.00000  Uiso   1.00
O411   O     0.89785   0.39975   0.16500   0.00000  Uiso   1.00
O412   O     0.97890   0.46250   0.09075   0.00000  Uiso   1.00
C413   C     0.90163   0.41975   0.21000   0.00000  Uiso   1.00
C414   C     0.97340   0.45625   0.04125   0.00000  Uiso   1.00
C415   C     0.92505   0.44425   0.03225   0.00000  Uiso   1.00
C416   C     0.94910   0.43950   0.21750   0.00000  Uiso   1.00
C417   C     0.94360   0.45000   0.05475   0.00000  Uiso   1.00
C418   C     0.93115   0.42525   0.19700   0.00000  Uiso   1.00
C419   C     0.92045   0.42775   0.23050   0.00000  Uiso   1.00
C420   C     0.95510   0.44300   0.02250   0.00000  Uiso   1.00
Al421  Al    0.99970   0.25000   0.12475   0.00000  Uiso   1.00
O422   O     0.75000   0.27750   0.06100   0.00000  Uiso   1.00
O423   O     0.76595   0.45675   0.11225   0.00000  Uiso   1.00
O424   O     0.85938   0.42000   0.14000   0.00000  Uiso   1.00
O425   O     0.77285   0.47525   0.04000   0.00000  Uiso   1.00
O426   O     0.85390   0.41250   0.21575   0.00000  Uiso   1.00
C427   C     0.77663   0.45525   0.08500   0.00000  Uiso   1.00
C428   C     0.84840   0.41875   0.16625   0.00000  Uiso   1.00
C429   C     0.80005   0.43075   0.15725   0.00000  Uiso   1.00
C430   C     0.82410   0.43550   0.09250   0.00000  Uiso   1.00
C431   C     0.81860   0.42500   0.17975   0.00000  Uiso   1.00
C432   C     0.80615   0.44975   0.07200   0.00000  Uiso   1.00
C433   C     0.79545   0.44725   0.10550   0.00000  Uiso   1.00
C434   C     0.83010   0.43200   0.14750   0.00000  Uiso   1.00
Al435  Al    0.87470   0.37500   0.12475   0.00000  Uiso   1.00
O436   O     0.87500   0.40250   0.06100   0.00000  Uiso   1.00
O437   O     0.89095   0.33175   0.11225   0.00000  Uiso   1.00
O438   O     0.98438   0.29500   0.14000   0.00000  Uiso   1.00
O439   O     0.89785   0.35025   0.04000   0.00000  Uiso   1.00
O440   O     0.97890   0.28750   0.21575   0.00000  Uiso   1.00
C441   C     0.90163   0.33025   0.08500   0.00000  Uiso   1.00
C442   C     0.97340   0.29375   0.16625   0.00000  Uiso   1.00
C443   C     0.92505   0.30575   0.15725   0.00000  Uiso   1.00
C444   C     0.94910   0.31050   0.09250   0.00000  Uiso   1.00
C445   C     0.94360   0.30000   0.17975   0.00000  Uiso   1.00
C446   C     0.93115   0.32475   0.07200   0.00000  Uiso   1.00
C447   C     0.92045   0.32225   0.10550   0.00000  Uiso   1.00
C448   C     0.95510   0.30700   0.14750   0.00000  Uiso   1.00
Al449  Al    0.24970   0.50000   0.24975   0.00000  Uiso   1.00
O450   O     0.00000   0.72250   0.18600   0.00000  Uiso   1.00
O451   O     0.01595   0.54325   0.23725   0.00000  Uiso   1.00
O452   O     0.10938   0.58000   0.01500   0.00000  Uiso   1.00
O453   O     0.02285   0.52475   0.16500   0.00000  Uiso   1.00
O454   O     0.10390   0.58750   0.09075   0.00000  Uiso   1.00
C455   C     0.02663   0.54475   0.21000   0.00000  Uiso   1.00
C456   C     0.09840   0.58125   0.04125   0.00000  Uiso   1.00
C457   C     0.05005   0.56925   0.03225   0.00000  Uiso   1.00
C458   C     0.07410   0.56450   0.21750   0.00000  Uiso   1.00
C459   C     0.06860   0.57500   0.05475   0.00000  Uiso   1.00
C460   C     0.05615   0.55025   0.19700   0.00000  Uiso   1.00
C461   C     0.04545   0.55275   0.23050   0.00000  Uiso   1.00
C462   C     0.08010   0.56800   0.02250   0.00000  Uiso   1.00
Al463  Al    0.12470   0.62500   0.24975   0.00000  Uiso   1.00
O464   O     0.12500   0.59750   0.18600   0.00000  Uiso   1.00
O465   O     0.14095   0.66825   0.23725   0.00000  Uiso   1.00
O466   O     0.23438   0.70500   0.01500   0.00000  Uiso   1.00
O467   O     0.14785   0.64975   0.16500   0.00000  Uiso   1.00
O468   O     0.22890   0.71250   0.09075   0.00000  Uiso   1.00
C469   C     0.15163   0.66975   0.21000   0.00000  Uiso   1.00
C470   C     0.22340   0.70625   0.04125   0.00000  Uiso   1.00
C471   C     0.17505   0.69425   0.03225   0.00000  Uiso   1.00
C472   C     0.19910   0.68950   0.21750   0.00000  Uiso   1.00
C473   C     0.19360   0.70000   0.05475   0.00000  Uiso   1.00
C474   C     0.18115   0.67525   0.19700   0.00000  Uiso   1.00
C475   C     0.17045   0.67775   0.23050   0.00000  Uiso   1.00
C476   C     0.20510   0.69300   0.02250   0.00000  Uiso   1.00
Al477  Al    0.24970   0.50000   0.12475   0.00000  Uiso   1.00
O478   O     0.00000   0.52750   0.06100   0.00000  Uiso   1.00
O479   O     0.01595   0.70675   0.11225   0.00000  Uiso   1.00
O480   O     0.10938   0.67000   0.14000   0.00000  Uiso   1.00
O481   O     0.02285   0.72525   0.04000   0.00000  Uiso   1.00
O482   O     0.10390   0.66250   0.21575   0.00000  Uiso   1.00
C483   C     0.02663   0.70525   0.08500   0.00000  Uiso   1.00
C484   C     0.09840   0.66875   0.16625   0.00000  Uiso   1.00
C485   C     0.05005   0.68075   0.15725   0.00000  Uiso   1.00
C486   C     0.07410   0.68550   0.09250   0.00000  Uiso   1.00
C487   C     0.06860   0.67500   0.17975   0.00000  Uiso   1.00
C488   C     0.05615   0.69975   0.07200   0.00000  Uiso   1.00
C489   C     0.04545   0.69725   0.10550   0.00000  Uiso   1.00
C490   C     0.08010   0.68200   0.14750   0.00000  Uiso   1.00
Al491  Al    0.12470   0.62500   0.12475   0.00000  Uiso   1.00
O492   O     0.12500   0.65250   0.06100   0.00000  Uiso   1.00
O493   O     0.14095   0.58175   0.11225   0.00000  Uiso   1.00
O494   O     0.23438   0.54500   0.14000   0.00000  Uiso   1.00
O495   O     0.14785   0.60025   0.04000   0.00000  Uiso   1.00
O496   O     0.22890   0.53750   0.21575   0.00000  Uiso   1.00
C497   C     0.15163   0.58025   0.08500   0.00000  Uiso   1.00
C498   C     0.22340   0.54375   0.16625   0.00000  Uiso   1.00
C499   C     0.17505   0.55575   0.15725   0.00000  Uiso   1.00
C500   C     0.19910   0.56050   0.09250   0.00000  Uiso   1.00
C501   C     0.19360   0.55000   0.17975   0.00000  Uiso   1.00
C502   C     0.18115   0.57475   0.07200   0.00000  Uiso   1.00
C503   C     0.17045   0.57225   0.10550   0.00000  Uiso   1.00
C504   C     0.20510   0.55700   0.14750   0.00000  Uiso   1.00
Al505  Al    0.49970   0.50000   0.24975   0.00000  Uiso   1.00
O506   O     0.25000   0.72250   0.18600   0.00000  Uiso   1.00
O507   O     0.26595   0.54325   0.23725   0.00000  Uiso   1.00
O508   O     0.35938   0.58000   0.01500   0.00000  Uiso   1.00
O509   O     0.27285   0.52475   0.16500   0.00000  Uiso   1.00
O510   O     0.35390   0.58750   0.09075   0.00000  Uiso   1.00
C511   C     0.27663   0.54475   0.21000   0.00000  Uiso   1.00
C512   C     0.34840   0.58125   0.04125   0.00000  Uiso   1.00
C513   C     0.30005   0.56925   0.03225   0.00000  Uiso   1.00
C514   C     0.32410   0.56450   0.21750   0.00000  Uiso   1.00
C515   C     0.31860   0.57500   0.05475   0.00000  Uiso   1.00
C516   C     0.30615   0.55025   0.19700   0.00000  Uiso   1.00
C517   C     0.29545   0.55275   0.23050   0.00000  Uiso   1.00
C518   C     0.33010   0.56800   0.02250   0.00000  Uiso   1.00
Al519  Al    0.37470   0.62500   0.24975   0.00000  Uiso   1.00
O520   O     0.37500   0.59750   0.18600   0.00000  Uiso   1.00
O521   O     0.39095   0.66825   0.23725   0.00000  Uiso   1.00
O522   O     0.48438   0.70500   0.01500   0.00000  Uiso   1.00
O523   O     0.39785   0.64975   0.16500   0.00000  Uiso   1.00
O524   O     0.47890   0.71250   0.09075   0.00000  Uiso   1.00
C525   C     0.40163   0.66975   0.21000   0.00000  Uiso   1.00
C526   C     0.47340   0.70625   0.04125   0.00000  Uiso   1.00
C527   C     0.42505   0.69425   0.03225   0.00000  Uiso   1.00
C528   C     0.44910   0.68950   0.21750   0.00000  Uiso   1.00
C529   C     0.44360   0.70000   0.05475   0.00000  Uiso   1.00
C530   C     0.43115   0.67525   0.19700   0.00000  Uiso   1.00
C531   C     0.42045   0.67775   0.23050   0.00000  Uiso   1.00
C532   C     0.45510   0.69300   0.02250   0.00000  Uiso   1.00
Al533  Al    0.49970   0.50000   0.12475   0.00000  Uiso   1.00
O534   O     0.25000   0.52750   0.06100   0.00000  Uiso   1.00
O535   O     0.26595   0.70675   0.11225   0.00000  Uiso   1.00
O536   O     0.35938   0.67000   0.14000   0.00000  Uiso   1.00
O537   O     0.27285   0.72525   0.04000   0.00000  Uiso   1.00
O538   O     0.35390   0.66250   0.21575   0.00000  Uiso   1.00
C539   C     0.27663   0.70525   0.08500   0.00000  Uiso   1.00
C540   C     0.34840   0.66875   0.16625   0.00000  Uiso   1.00
C541   C     0.30005   0.68075   0.15725   0.00000  Uiso   1.00
C542   C     0.32410   0.68550   0.09250   0.00000  Uiso   1.00
C543   C     0.31860   0.67500   0.17975   0.00000  Uiso   1.00
C544   C     0.30615   0.69975   0.07200   0.00000  Uiso   1.00
C545   C     0.29545   0.69725   0.10550   0.00000  Uiso   1.00
C546   C     0.33010   0.68200   0.14750   0.00000  Uiso   1.00
Al547  Al    0.37470   0.62500   0.12475   0.00000  Uiso   1.00
O548   O     0.37500   0.65250   0.06100   0.00000  Uiso   1.00
O549   O     0.39095   0.58175   0.11225   0.00000  Uiso   1.00
O550   O     0.48438   0.54500   0.14000   0.00000  Uiso   1.00
O551   O     0.39785   0.60025   0.04000   0.00000  Uiso   1.00
O552   O     0.47890   0.53750   0.21575   0.00000  Uiso   1.00
C553   C     0.40163   0.58025   0.08500   0.00000  Uiso   1.00
C554   C     0.47340   0.54375   0.16625   0.00000  Uiso   1.00
C555   C     0.42505   0.55575   0.15725   0.00000  Uiso   1.00
C556   C     0.44910   0.56050   0.09250   0.00000  Uiso   1.00
C557   C     0.44360   0.55000   0.17975   0.00000  Uiso   1.00
C558   C     0.43115   0.57475   0.07200   0.00000  Uiso   1.00
C559   C     0.42045   0.57225   0.10550   0.00000  Uiso   1.00
C560   C     0.45510   0.55700   0.14750   0.00000  Uiso   1.00
Al561  Al    0.74970   0.50000   0.24975   0.00000  Uiso   1.00
O562   O     0.50000   0.72250   0.18600   0.00000  Uiso   1.00
O563   O     0.51595   0.54325   0.23725   0.00000  Uiso   1.00
O564   O     0.60938   0.58000   0.01500   0.00000  Uiso   1.00
O565   O     0.52285   0.52475   0.16500   0.00000  Uiso   1.00
O566   O     0.60390   0.58750   0.09075   0.00000  Uiso   1.00
C567   C     0.52663   0.54475   0.21000   0.00000  Uiso   1.00
C568   C     0.59840   0.58125   0.04125   0.00000  Uiso   1.00
C569   C     0.55005   0.56925   0.03225   0.00000  Uiso   1.00
C570   C     0.57410   0.56450   0.21750   0.00000  Uiso   1.00
C571   C     0.56860   0.57500   0.05475   0.00000  Uiso   1.00
C572   C     0.55615   0.55025   0.19700   0.00000  Uiso   1.00
C573   C     0.54545   0.55275   0.23050   0.00000  Uiso   1.00
C574   C     0.58010   0.56800   0.02250   0.00000  Uiso   1.00
Al575  Al    0.62470   0.62500   0.24975   0.00000  Uiso   1.00
O576   O     0.62500   0.59750   0.18600   0.00000  Uiso   1.00
O577   O     0.64095   0.66825   0.23725   0.00000  Uiso   1.00
O578   O     0.73438   0.70500   0.01500   0.00000  Uiso   1.00
O579   O     0.64785   0.64975   0.16500   0.00000  Uiso   1.00
O580   O     0.72890   0.71250   0.09075   0.00000  Uiso   1.00
C581   C     0.65163   0.66975   0.21000   0.00000  Uiso   1.00
C582   C     0.72340   0.70625   0.04125   0.00000  Uiso   1.00
C583   C     0.67505   0.69425   0.03225   0.00000  Uiso   1.00
C584   C     0.69910   0.68950   0.21750   0.00000  Uiso   1.00
C585   C     0.69360   0.70000   0.05475   0.00000  Uiso   1.00
C586   C     0.68115   0.67525   0.19700   0.00000  Uiso   1.00
C587   C     0.67045   0.67775   0.23050   0.00000  Uiso   1.00
C588   C     0.70510   0.69300   0.02250   0.00000  Uiso   1.00
Al589  Al    0.74970   0.50000   0.12475   0.00000  Uiso   1.00
O590   O     0.50000   0.52750   0.06100   0.00000  Uiso   1.00
O591   O     0.51595   0.70675   0.11225   0.00000  Uiso   1.00
O592   O     0.60938   0.67000   0.14000   0.00000  Uiso   1.00
O593   O     0.52285   0.72525   0.04000   0.00000  Uiso   1.00
O594   O     0.60390   0.66250   0.21575   0.00000  Uiso   1.00
C595   C     0.52663   0.70525   0.08500   0.00000  Uiso   1.00
C596   C     0.59840   0.66875   0.16625   0.00000  Uiso   1.00
C597   C     0.55005   0.68075   0.15725   0.00000  Uiso   1.00
C598   C     0.57410   0.68550   0.09250   0.00000  Uiso   1.00
C599   C     0.56860   0.67500   0.17975   0.00000  Uiso   1.00
C600   C     0.55615   0.69975   0.07200   0.00000  Uiso   1.00
C601   C     0.54545   0.69725   0.10550   0.00000  Uiso   1.00
C602   C     0.58010   0.68200   0.14750   0.00000  Uiso   1.00
Al603  Al    0.62470   0.62500   0.12475   0.00000  Uiso   1.00
O604   O     0.62500   0.65250   0.06100   0.00000  Uiso   1.00
O605   O     0.64095   0.58175   0.11225   0.00000  Uiso   1.00
O606   O     0.73438   0.54500   0.14000   0.00000  Uiso   1.00
O607   O     0.64785   0.60025   0.04000   0.00000  Uiso   1.00
O608   O     0.72890   0.53750   0.21575   0.00000  Uiso   1.00
C609   C     0.65163   0.58025   0.08500   0.00000  Uiso   1.00
C610   C     0.72340   0.54375   0.16625   0.00000  Uiso   1.00
C611   C     0.67505   0.55575   0.15725   0.00000  Uiso   1.00
C612   C     0.69910   0.56050   0.09250   0.00000  Uiso   1.00
C613   C     0.69360   0.55000   0.17975   0.00000  Uiso   1.00
C614   C     0.68115   0.57475   0.07200   0.00000  Uiso   1.00
C615   C     0.67045   0.57225   0.10550   0.00000  Uiso   1.00
C616   C     0.70510   0.55700   0.14750   0.00000  Uiso   1.00
Al617  Al    0.99970   0.50000   0.24975   0.00000  Uiso   1.00
O618   O     0.75000   0.72250   0.18600   0.00000  Uiso   1.00
O619   O     0.76595   0.54325   0.23725   0.00000  Uiso   1.00
O620   O     0.85938   0.58000   0.01500   0.00000  Uiso   1.00
O621   O     0.77285   0.52475   0.16500   0.00000  Uiso   1.00
O622   O     0.85390   0.58750   0.09075   0.00000  Uiso   1.00
C623   C     0.77663   0.54475   0.21000   0.00000  Uiso   1.00
C624   C     0.84840   0.58125   0.04125   0.00000  Uiso   1.00
C625   C     0.80005   0.56925   0.03225   0.00000  Uiso   1.00
C626   C     0.82410   0.56450   0.21750   0.00000  Uiso   1.00
C627   C     0.81860   0.57500   0.05475   0.00000  Uiso   1.00
C628   C     0.80615   0.55025   0.19700   0.00000  Uiso   1.00
C629   C     0.79545   0.55275   0.23050   0.00000  Uiso   1.00
C630   C     0.83010   0.56800   0.02250   0.00000  Uiso   1.00
Al631  Al    0.87470   0.62500   0.24975   0.00000  Uiso   1.00
O632   O     0.87500   0.59750   0.18600   0.00000  Uiso   1.00
O633   O     0.89095   0.66825   0.23725   0.00000  Uiso   1.00
O634   O     0.98438   0.70500   0.01500   0.00000  Uiso   1.00
O635   O     0.89785   0.64975   0.16500   0.00000  Uiso   1.00
O636   O     0.97890   0.71250   0.09075   0.00000  Uiso   1.00
C637   C     0.90163   0.66975   0.21000   0.00000  Uiso   1.00
C638   C     0.97340   0.70625   0.04125   0.00000  Uiso   1.00
C639   C     0.92505   0.69425   0.03225   0.00000  Uiso   1.00
C640   C     0.94910   0.68950   0.21750   0.00000  Uiso   1.00
C641   C     0.94360   0.70000   0.05475   0.00000  Uiso   1.00
C642   C     0.93115   0.67525   0.19700   0.00000  Uiso   1.00
C643   C     0.92045   0.67775   0.23050   0.00000  Uiso   1.00
C644   C     0.95510   0.69300   0.02250   0.00000  Uiso   1.00
Al645  Al    0.99970   0.50000   0.12475   0.00000  Uiso   1.00
O646   O     0.75000   0.52750   0.06100   0.00000  Uiso   1.00
O647   O     0.76595   0.70675   0.11225   0.00000  Uiso   1.00
O648   O     0.85938   0.67000   0.14000   0.00000  Uiso   1.00
O649   O     0.77285   0.72525   0.04000   0.00000  Uiso   1.00
O650   O     0.85390   0.66250   0.21575   0.00000  Uiso   1.00
C651   C     0.77663   0.70525   0.08500   0.00000  Uiso   1.00
C652   C     0.84840   0.66875   0.16625   0.00000  Uiso   1.00
C653   C     0.80005   0.68075   0.15725   0.00000  Uiso   1.00
C654   C     0.82410   0.68550   0.09250   0.00000  Uiso   1.00
C655   C     0.81860   0.67500   0.17975   0.00000  Uiso   1.00
C656   C     0.80615   0.69975   0.07200   0.00000  Uiso   1.00
C657   C     0.79545   0.69725   0.10550   0.00000  Uiso   1.00
C658   C     0.83010   0.68200   0.14750   0.00000  Uiso   1.00
Al659  Al    0.87470   0.62500   0.12475   0.00000  Uiso   1.00
O660   O     0.87500   0.65250   0.06100   0.00000  Uiso   1.00
O661   O     0.89095   0.58175   0.11225   0.00000  Uiso   1.00
O662   O     0.98438   0.54500   0.14000   0.00000  Uiso   1.00
O663   O     0.89785   0.60025   0.04000   0.00000  Uiso   1.00
O664   O     0.97890   0.53750   0.21575   0.00000  Uiso   1.00
C665   C     0.90163   0.58025   0.08500   0.00000  Uiso   1.00
C666   C     0.97340   0.54375   0.16625   0.00000  Uiso   1.00
C667   C     0.92505   0.55575   0.15725   0.00000  Uiso   1.00
C668   C     0.94910   0.56050   0.09250   0.00000  Uiso   1.00
C669   C     0.94360   0.55000   0.17975   0.00000  Uiso   1.00
C670   C     0.93115   0.57475   0.07200   0.00000  Uiso   1.00
C671   C     0.92045   0.57225   0.10550   0.00000  Uiso   1.00
C672   C     0.95510   0.55700   0.14750   0.00000  Uiso   1.00
Al673  Al    0.24970   0.75000   0.24975   0.00000  Uiso   1.00
O674   O     0.00000   0.97250   0.18600   0.00000  Uiso   1.00
O675   O     0.01595   0.79325   0.23725   0.00000  Uiso   1.00
O676   O     0.10938   0.83000   0.01500   0.00000  Uiso   1.00
O677   O     0.02285   0.77475   0.16500   0.00000  Uiso   1.00
O678   O     0.10390   0.83750   0.09075   0.00000  Uiso   1.00
C679   C     0.02663   0.79475   0.21000   0.00000  Uiso   1.00
C680   C     0.09840   0.83125   0.04125   0.00000  Uiso   1.00
C681   C     0.05005   0.81925   0.03225   0.00000  Uiso   1.00
C682   C     0.07410   0.81450   0.21750   0.00000  Uiso   1.00
C683   C     0.06860   0.82500   0.05475   0.00000  Uiso   1.00
C684   C     0.05615   0.80025   0.19700   0.00000  Uiso   1.00
C685   C     0.04545   0.80275   0.23050   0.00000  Uiso   1.00
C686   C     0.08010   0.81800   0.02250   0.00000  Uiso   1.00
Al687  Al    0.12470   0.87500   0.24975   0.00000  Uiso   1.00
O688   O     0.12500   0.84750   0.18600   0.00000  Uiso   1.00
O689   O     0.14095   0.91825   0.23725   0.00000  Uiso   1.00
O690   O     0.23438   0.95500   0.01500   0.00000  Uiso   1.00
O691   O     0.14785   0.89975   0.16500   0.00000  Uiso   1.00
O692   O     0.22890   0.96250   0.09075   0.00000  Uiso   1.00
C693   C     0.15163   0.91975   0.21000   0.00000  Uiso   1.00
C694   C     0.22340   0.95625   0.04125   0.00000  Uiso   1.00
C695   C     0.17505   0.94425   0.03225   0.00000  Uiso   1.00
C696   C     0.19910   0.93950   0.21750   0.00000  Uiso   1.00
C697   C     0.19360   0.95000   0.05475   0.00000  Uiso   1.00
C698   C     0.18115   0.92525   0.19700   0.00000  Uiso   1.00
C699   C     0.17045   0.92775   0.23050   0.00000  Uiso   1.00
C700   C     0.20510   0.94300   0.02250   0.00000  Uiso   1.00
Al701  Al    0.24970   0.75000   0.12475   0.00000  Uiso   1.00
O702   O     0.00000   0.77750   0.06100   0.00000  Uiso   1.00
O703   O     0.01595   0.95675   0.11225   0.00000  Uiso   1.00
O704   O     0.10938   0.92000   0.14000   0.00000  Uiso   1.00
O705   O     0.02285   0.97525   0.04000   0.00000  Uiso   1.00
O706   O     0.10390   0.91250   0.21575   0.00000  Uiso   1.00
C707   C     0.02663   0.95525   0.08500   0.00000  Uiso   1.00
C708   C     0.09840   0.91875   0.16625   0.00000  Uiso   1.00
C709   C     0.05005   0.93075   0.15725   0.00000  Uiso   1.00
C710   C     0.07410   0.93550   0.09250   0.00000  Uiso   1.00
C711   C     0.06860   0.92500   0.17975   0.00000  Uiso   1.00
C712   C     0.05615   0.94975   0.07200   0.00000  Uiso   1.00
C713   C     0.04545   0.94725   0.10550   0.00000  Uiso   1.00
C714   C     0.08010   0.93200   0.14750   0.00000  Uiso   1.00
Al715  Al    0.12470   0.87500   0.12475   0.00000  Uiso   1.00
O716   O     0.12500   0.90250   0.06100   0.00000  Uiso   1.00
O717   O     0.14095   0.83175   0.11225   0.00000  Uiso   1.00
O718   O     0.23438   0.79500   0.14000   0.00000  Uiso   1.00
O719   O     0.14785   0.85025   0.04000   0.00000  Uiso   1.00
O720   O     0.22890   0.78750   0.21575   0.00000  Uiso   1.00
C721   C     0.15163   0.83025   0.08500   0.00000  Uiso   1.00
C722   C     0.22340   0.79375   0.16625   0.00000  Uiso   1.00
C723   C     0.17505   0.80575   0.15725   0.00000  Uiso   1.00
C724   C     0.19910   0.81050   0.09250   0.00000  Uiso   1.00
C725   C     0.19360   0.80000   0.17975   0.00000  Uiso   1.00
C726   C     0.18115   0.82475   0.07200   0.00000  Uiso   1.00
C727   C     0.17045   0.82225   0.10550   0.00000  Uiso   1.00
C728   C     0.20510   0.80700   0.14750   0.00000  Uiso   1.00
Al729  Al    0.49970   0.75000   0.24975   0.00000  Uiso   1.00
O730   O     0.25000   0.97250   0.18600   0.00000  Uiso   1.00
O731   O     0.26595   0.79325   0.23725   0.00000  Uiso   1.00
O732   O     0.35938   0.83000   0.01500   0.00000  Uiso   1.00
O733   O     0.27285   0.77475   0.16500   0.00000  Uiso   1.00
O734   O     0.35390   0.83750   0.09075   0.00000  Uiso   1.00
C735   C     0.27663   0.79475   0.21000   0.00000  Uiso   1.00
C736   C     0.34840   0.83125   0.04125   0.00000  Uiso   1.00
C737   C     0.30005   0.81925   0.03225   0.00000  Uiso   1.00
C738   C     0.32410   0.81450   0.21750   0.00000  Uiso   1.00
C739   C     0.31860   0.82500   0.05475   0.00000  Uiso   1.00
C740   C     0.30615   0.80025   0.19700   0.00000  Uiso   1.00
C741   C     0.29545   0.80275   0.23050   0.00000  Uiso   1.00
C742   C     0.33010   0.81800   0.02250   0.00000  Uiso   1.00
Al743  Al    0.37470   0.87500   0.24975   0.00000  Uiso   1.00
O744   O     0.37500   0.84750   0.18600   0.00000  Uiso   1.00
O745   O     0.39095   0.91825   0.23725   0.00000  Uiso   1.00
O746   O     0.48438   0.95500   0.01500   0.00000  Uiso   1.00
O747   O     0.39785   0.89975   0.16500   0.00000  Uiso   1.00
O748   O     0.47890   0.96250   0.09075   0.00000  Uiso   1.00
C749   C     0.40163   0.91975   0.21000   0.00000  Uiso   1.00
C750   C     0.47340   0.95625   0.04125   0.00000  Uiso   1.00
C751   C     0.42505   0.94425   0.03225   0.00000  Uiso   1.00
C752   C     0.44910   0.93950   0.21750   0.00000  Uiso   1.00
C753   C     0.44360   0.95000   0.05475   0.00000  Uiso   1.00
C754   C     0.43115   0.92525   0.19700   0.00000  Uiso   1.00
C755   C     0.42045   0.92775   0.23050   0.00000  Uiso   1.00
C756   C     0.45510   0.94300   0.02250   0.00000  Uiso   1.00
Al757  Al    0.49970   0.75000   0.12475   0.00000  Uiso   1.00
O758   O     0.25000   0.77750   0.06100   0.00000  Uiso   1.00
O759   O     0.26595   0.95675   0.11225   0.00000  Uiso   1.00
O760   O     0.35938   0.92000   0.14000   0.00000  Uiso   1.00
O761   O     0.27285   0.97525   0.04000   0.00000  Uiso   1.00
O762   O     0.35390   0.91250   0.21575   0.00000  Uiso   1.00
C763   C     0.27663   0.95525   0.08500   0.00000  Uiso   1.00
C764   C     0.34840   0.91875   0.16625   0.00000  Uiso   1.00
C765   C     0.30005   0.93075   0.15725   0.00000  Uiso   1.00
C766   C     0.32410   0.93550   0.09250   0.00000  Uiso   1.00
C767   C     0.31860   0.92500   0.17975   0.00000  Uiso   1.00
C768   C     0.30615   0.94975   0.07200   0.00000  Uiso   1.00
C769   C     0.29545   0.94725   0.10550   0.00000  Uiso   1.00
C770   C     0.33010   0.93200   0.14750   0.00000  Uiso   1.00
Al771  Al    0.37470   0.87500   0.12475   0.00000  Uiso   1.00
O772   O     0.37500   0.90250   0.06100   0.00000  Uiso   1.00
O773   O     0.39095   0.83175   0.11225   0.00000  Uiso   1.00
O774   O     0.48438   0.79500   0.14000   0.00000  Uiso   1.00
O775   O     0.39785   0.85025   0.04000   0.00000  Uiso   1.00
O776   O     0.47890   0.78750   0.21575   0.00000  Uiso   1.00
C777   C     0.40163   0.83025   0.08500   0.00000  Uiso   1.00
C778   C     0.47340   0.79375   0.16625   0.00000  Uiso   1.00
C779   C     0.42505   0.80575   0.15725   0.00000  Uiso   1.00
C780   C     0.44910   0.81050   0.09250   0.00000  Uiso   1.00
C781   C     0.44360   0.80000   0.17975   0.00000  Uiso   1.00
C782   C     0.43115   0.82475   0.07200   0.00000  Uiso   1.00
C783   C     0.42045   0.82225   0.10550   0.00000  Uiso   1.00
C784   C     0.45510   0.80700   0.14750   0.00000  Uiso   1.00
Al785  Al    0.74970   0.75000   0.24975   0.00000  Uiso   1.00
O786   O     0.50000   0.97250   0.18600   0.00000  Uiso   1.00
O787   O     0.51595   0.79325   0.23725   0.00000  Uiso   1.00
O788   O     0.60938   0.83000   0.01500   0.00000  Uiso   1.00
O789   O     0.52285   0.77475   0.16500   0.00000  Uiso   1.00
O790   O     0.60390   0.83750   0.09075   0.00000  Uiso   1.00
C791   C     0.52663   0.79475   0.21000   0.00000  Uiso   1.00
C792   C     0.59840   0.83125   0.04125   0.00000  Uiso   1.00
C793   C     0.55005   0.81925   0.03225   0.00000  Uiso   1.00
C794   C     0.57410   0.81450   0.21750   0.00000  Uiso   1.00
C795   C     0.56860   0.82500   0.05475   0.00000  Uiso   1.00
C796   C     0.55615   0.80025   0.19700   0.00000  Uiso   1.00
C797   C     0.54545   0.80275   0.23050   0.00000  Uiso   1.00
C798   C     0.58010   0.81800   0.02250   0.00000  Uiso   1.00
Al799  Al    0.62470   0.87500   0.24975   0.00000  Uiso   1.00
O800   O     0.62500   0.84750   0.18600   0.00000  Uiso   1.00
O801   O     0.64095   0.91825   0.23725   0.00000  Uiso   1.00
O802   O     0.73438   0.95500   0.01500   0.00000  Uiso   1.00
O803   O     0.64785   0.89975   0.16500   0.00000  Uiso   1.00
O804   O     0.72890   0.96250   0.09075   0.00000  Uiso   1.00
C805   C     0.65163   0.91975   0.21000   0.00000  Uiso   1.00
C806   C     0.72340   0.95625   0.04125   0.00000  Uiso   1.00
C807   C     0.67505   0.94425   0.03225   0.00000  Uiso   1.00
C808   C     0.69910   0.93950   0.21750   0.00000  Uiso   1.00
C809   C     0.69360   0.95000   0.05475   0.00000  Uiso   1.00
C810   C     0.68115   0.92525   0.19700   0.00000  Uiso   1.00
C811   C     0.67045   0.92775   0.23050   0.00000  Uiso   1.00
C812   C     0.70510   0.94300   0.02250   0.00000  Uiso   1.00
Al813  Al    0.74970   0.75000   0.12475   0.00000  Uiso   1.00
O814   O     0.50000   0.77750   0.06100   0.00000  Uiso   1.00
O815   O     0.51595   0.95675   0.11225   0.00000  Uiso   1.00
O816   O     0.60938   0.92000   0.14000   0.00000  Uiso   1.00
O817   O     0.52285   0.97525   0.04000   0.00000  Uiso   1.00
O818   O     0.60390   0.91250   0.21575   0.00000  Uiso   1.00
C819   C     0.52663   0.95525   0.08500   0.00000  Uiso   1.00
C820   C     0.59840   0.91875   0.16625   0.00000  Uiso   1.00
C821   C     0.55005   0.93075   0.15725   0.00000  Uiso   1.00
C822   C     0.57410   0.93550   0.09250   0.00000  Uiso   1.00
C823   C     0.56860   0.92500   0.17975   0.00000  Uiso   1.00
C824   C     0.55615   0.94975   0.07200   0.00000  Uiso   1.00
C825   C     0.54545   0.94725   0.10550   0.00000  Uiso   1.00
C826   C     0.58010   0.93200   0.14750   0.00000  Uiso   1.00
Al827  Al    0.62470   0.87500   0.12475   0.00000  Uiso   1.00
O828   O     0.62500   0.90250   0.06100   0.00000  Uiso   1.00
O829   O     0.64095   0.83175   0.11225   0.00000  Uiso   1.00
O830   O     0.73438   0.79500   0.14000   0.00000  Uiso   1.00
O831   O     0.64785   0.85025   0.04000   0.00000  Uiso   1.00
O832   O     0.72890   0.78750   0.21575   0.00000  Uiso   1.00
C833   C     0.65163   0.83025   0.08500   0.00000  Uiso   1.00
C834   C     0.72340   0.79375   0.16625   0.00000  Uiso   1.00
C835   C     0.67505   0.80575   0.15725   0.00000  Uiso   1.00
C836   C     0.69910   0.81050   0.09250   0.00000  Uiso   1.00
C837   C     0.69360   0.80000   0.17975   0.00000  Uiso   1.00
C838   C     0.68115   0.82475   0.07200   0.00000  Uiso   1.00
C839   C     0.67045   0.82225   0.10550   0.00000  Uiso   1.00
C840   C     0.70510   0.80700   0.14750   0.00000  Uiso   1.00
Al841  Al    0.99970   0.75000   0.24975   0.00000  Uiso   1.00
O842   O     0.75000   0.97250   0.18600   0.00000  Uiso   1.00
O843   O     0.76595   0.79325   0.23725   0.00000  Uiso   1.00
O844   O     0.85938   0.83000   0.01500   0.00000  Uiso   1.00
O845   O     0.77285   0.77475   0.16500   0.00000  Uiso   1.00
O846   O     0.85390   0.83750   0.09075   0.00000  Uiso   1.00
C847   C     0.77663   0.79475   0.21000   0.00000  Uiso   1.00
C848   C     0.84840   0.83125   0.04125   0.00000  Uiso   1.00
C849   C     0.80005   0.81925   0.03225   0.00000  Uiso   1.00
C850   C     0.82410   0.81450   0.21750   0.00000  Uiso   1.00
C851   C     0.81860   0.82500   0.05475   0.00000  Uiso   1.00
C852   C     0.80615   0.80025   0.19700   0.00000  Uiso   1.00
C853   C     0.79545   0.80275   0.23050   0.00000  Uiso   1.00
C854   C     0.83010   0.81800   0.02250   0.00000  Uiso   1.00
Al855  Al    0.87470   0.87500   0.24975   0.00000  Uiso   1.00
O856   O     0.87500   0.84750   0.18600   0.00000  Uiso   1.00
O857   O     0.89095   0.91825   0.23725   0.00000  Uiso   1.00
O858   O     0.98438   0.95500   0.01500   0.00000  Uiso   1.00
O859   O     0.89785   0.89975   0.16500   0.00000  Uiso   1.00
O860   O     0.97890   0.96250   0.09075   0.00000  Uiso   1.00
C861   C     0.90163   0.91975   0.21000   0.00000  Uiso   1.00
C862   C     0.97340   0.95625   0.04125   0.00000  Uiso   1.00
C863   C     0.92505   0.94425   0.03225   0.00000  Uiso   1.00
C864   C     0.94910   0.93950   0.21750   0.00000  Uiso   1.00
C865   C     0.94360   0.95000   0.05475   0.00000  Uiso   1.00
C866   C     0.93115   0.92525   0.19700   0.00000  Uiso   1.00
C867   C     0.92045   0.92775   0.23050   0.00000  Uiso   1.00
C868   C     0.95510   0.94300   0.02250   0.00000  Uiso   1.00
Al869  Al    0.99970   0.75000   0.12475   0.00000  Uiso   1.00
O870   O     0.75000   0.77750   0.06100   0.00000  Uiso   1.00
O871   O     0.76595   0.95675   0.11225   0.00000  Uiso   1.00
O872   O     0.85938   0.92000   0.14000   0.00000  Uiso   1.00
O873   O     0.77285   0.97525   0.04000   0.00000  Uiso   1.00
O874   O     0.85390   0.91250   0.21575   0.00000  Uiso   1.00
C875   C     0.77663   0.95525   0.08500   0.00000  Uiso   1.00
C876   C     0.84840   0.91875   0.16625   0.00000  Uiso   1.00
C877   C     0.80005   0.93075   0.15725   0.00000  Uiso   1.00
C878   C     0.82410   0.93550   0.09250   0.00000  Uiso   1.00
C879   C     0.81860   0.92500   0.17975   0.00000  Uiso   1.00
C880   C     0.80615   0.94975   0.07200   0.00000  Uiso   1.00
C881   C     0.79545   0.94725   0.10550   0.00000  Uiso   1.00
C882   C     0.83010   0.93200   0.14750   0.00000  Uiso   1.00
Al883  Al    0.87470   0.87500   0.12475   0.00000  Uiso   1.00
O884   O     0.87500   0.90250   0.06100   0.00000  Uiso   1.00
O885   O     0.89095   0.83175   0.11225   0.00000  Uiso   1.00
O886   O     0.98438   0.79500   0.14000   0.00000  Uiso   1.00
O887   O     0.89785   0.85025   0.04000   0.00000  Uiso   1.00
O888   O     0.97890   0.78750   0.21575   0.00000  Uiso   1.00
C889   C     0.90163   0.83025   0.08500   0.00000  Uiso   1.00
C890   C     0.97340   0.79375   0.16625   0.00000  Uiso   1.00
C891   C     0.92505   0.80575   0.15725   0.00000  Uiso   1.00
C892   C     0.94910   0.81050   0.09250   0.00000  Uiso   1.00
C893   C     0.94360   0.80000   0.17975   0.00000  Uiso   1.00
C894   C     0.93115   0.82475   0.07200   0.00000  Uiso   1.00
C895   C     0.92045   0.82225   0.10550   0.00000  Uiso   1.00
C896   C     0.95510   0.80700   0.14750   0.00000  Uiso   1.00
Al897  Al    0.24970   0.00000   0.49975   0.00000  Uiso   1.00
O898   O     0.00000   0.22250   0.43600   0.00000  Uiso   1.00
O899   O     0.01595   0.04325   0.48725   0.00000  Uiso   1.00
O900   O     0.10938   0.08000   0.26500   0.00000  Uiso   1.00
O901   O     0.02285   0.02475   0.41500   0.00000  Uiso   1.00
O902   O     0.10390   0.08750   0.34075   0.00000  Uiso   1.00
C903   C     0.02663   0.04475   0.46000   0.00000  Uiso   1.00
C904   C     0.09840   0.08125   0.29125   0.00000  Uiso   1.00
C905   C     0.05005   0.06925   0.28225   0.00000  Uiso   1.00
C906   C     0.07410   0.06450   0.46750   0.00000  Uiso   1.00
C907   C     0.06860   0.07500   0.30475   0.00000  Uiso   1.00
C908   C     0.05615   0.05025   0.44700   0.00000  Uiso   1.00
C909   C     0.04545   0.05275   0.48050   0.00000  Uiso   1.00
C910   C     0.08010   0.06800   0.27250   0.00000  Uiso   1.00
Al911  Al    0.12470   0.12500   0.49975   0.00000  Uiso   1.00
O912   O     0.12500   0.09750   0.43600   0.00000  Uiso   1.00
O913   O     0.14095   0.16825   0.48725   0.00000  Uiso   1.00
O914   O     0.23438   0.20500   0.26500   0.00000  Uiso   1.00
O915   O     0.14785   0.14975   0.41500   0.00000  Uiso   1.00
O916   O     0.22890   0.21250   0.34075   0.00000  Uiso   1.00
C917   C     0.15163   0.16975   0.46000   0.00000  Uiso   1.00
C918   C     0.22340   0.20625   0.29125   0.00000  Uiso   1.00
C919   C     0.17505   0.19425   0.28225   0.00000  Uiso   1.00
C920   C     0.19910   0.18950   0.46750   0.00000  Uiso   1.00
C921   C     0.19360   0.20000   0.30475   0.00000  Uiso   1.00
C922   C     0.18115   0.17525   0.44700   0.00000  Uiso   1.00
C923   C     0.17045   0.17775   0.48050   0.00000  Uiso   1.00
C924   C     0.20510   0.19300   0.27250   0.00000  Uiso   1.00
Al925  Al    0.24970   0.00000   0.37475   0.00000  Uiso   1.00
O926   O     0.00000   0.02750   0.31100   0.00000  Uiso   1.00
O927   O     0.01595   0.20675   0.36225   0.00000  Uiso   1.00
O928   O     0.10938   0.17000   0.39000   0.00000  Uiso   1.00
O929   O     0.02285   0.22525   0.29000   0.00000  Uiso   1.00
O930   O     0.10390   0.16250   0.46575   0.00000  Uiso   1.00
C931   C     0.02663   0.20525   0.33500   0.00000  Uiso   1.00
C932   C     0.09840   0.16875   0.41625   0.00000  Uiso   1.00
C933   C     0.05005   0.18075   0.40725   0.00000  Uiso   1.00
C934   C     0.07410   0.18550   0.34250   0.00000  Uiso   1.00
C935   C     0.06860   0.17500   0.42975   0.00000  Uiso   1.00
C936   C     0.05615   0.19975   0.32200   0.00000  Uiso   1.00
C937   C     0.04545   0.19725   0.35550   0.00000  Uiso   1.00
C938   C     0.08010   0.18200   0.39750   0.00000  Uiso   1.00
Al939  Al    0.12470   0.12500   0.37475   0.00000  Uiso   1.00
O940   O     0.12500   0.15250   0.31100   0.00000  Uiso   1.00
O941   O     0.14095   0.08175   0.36225   0.00000  Uiso   1.00
O942   O     0.23438   0.04500   0.39000   0.00000  Uiso   1.00
O943   O     0.14785   0.10025   0.29000   0.00000  Uiso   1.00
O944   O     0.22890   0.03750   0.46575   0.00000  Uiso   1.00
C945   C     0.15163   0.08025   0.33500   0.00000  Uiso   1.00
C946   C     0.22340   0.04375   0.41625   0.00000  Uiso   1.00
C947   C     0.17505   0.05575   0.40725   0.00000  Uiso   1.00
C948   C     0.19910   0.06050   0.34250   0.00000  Uiso   1.00
C949   C     0.19360   0.05000   0.42975   0.00000  Uiso   1.00
C950   C     0.18115   0.07475   0.32200   0.00000  Uiso   1.00
C951   C     0.17045   0.07225   0.35550   0.00000  Uiso   1.00
C952   C     0.20510   0.05700   0.39750   0.00000  Uiso   1.00
Al953  Al    0.49970   0.00000   0.49975   0.00000  Uiso   1.00
O954   O     0.25000   0.22250   0.43600   0.00000  Uiso   1.00
O955   O     0.26595   0.04325   0.48725   0.00000  Uiso   1.00
O956   O     0.35938   0.08000   0.26500   0.00000  Uiso   1.00
O957   O     0.27285   0.02475   0.41500   0.00000  Uiso   1.00
O958   O     0.35390   0.08750   0.34075   0.00000  Uiso   1.00
C959   C     0.27663   0.04475   0.46000   0.00000  Uiso   1.00
C960   C     0.34840   0.08125   0.29125   0.00000  Uiso   1.00
C961   C     0.30005   0.06925   0.28225   0.00000  Uiso   1.00
C962   C     0.32410   0.06450   0.46750   0.00000  Uiso   1.00
C963   C     0.31860   0.07500   0.30475   0.00000  Uiso   1.00
C964   C     0.30615   0.05025   0.44700   0.00000  Uiso   1.00
C965   C     0.29545   0.05275   0.48050   0.00000  Uiso   1.00
C966   C     0.33010   0.06800   0.27250   0.00000  Uiso   1.00
Al967  Al    0.37470   0.12500   0.49975   0.00000  Uiso   1.00
O968   O     0.37500   0.09750   0.43600   0.00000  Uiso   1.00
O969   O     0.39095   0.16825   0.48725   0.00000  Uiso   1.00
O970   O     0.48438   0.20500   0.26500   0.00000  Uiso   1.00
O971   O     0.39785   0.14975   0.41500   0.00000  Uiso   1.00
O972   O     0.47890   0.21250   0.34075   0.00000  Uiso   1.00
C973   C     0.40163   0.16975   0.46000   0.00000  Uiso   1.00
C974   C     0.47340   0.20625   0.29125   0.00000  Uiso   1.00
C975   C     0.42505   0.19425   0.28225   0.00000  Uiso   1.00
C976   C     0.44910   0.18950   0.46750   0.00000  Uiso   1.00
C977   C     0.44360   0.20000   0.30475   0.00000  Uiso   1.00
C978   C     0.43115   0.17525   0.44700   0.00000  Uiso   1.00
C979   C     0.42045   0.17775   0.48050   0.00000  Uiso   1.00
C980   C     0.45510   0.19300   0.27250   0.00000  Uiso   1.00
Al981  Al    0.49970   0.00000   0.37475   0.00000  Uiso   1.00
O982   O     0.25000   0.02750   0.31100   0.00000  Uiso   1.00
O983   O     0.26595   0.20675   0.36225   0.00000  Uiso   1.00
O984   O     0.35938   0.17000   0.39000   0.00000  Uiso   1.00
O985   O     0.27285   0.22525   0.29000   0.00000  Uiso   1.00
O986   O     0.35390   0.16250   0.46575   0.00000  Uiso   1.00
C987   C     0.27663   0.20525   0.33500   0.00000  Uiso   1.00
C988   C     0.34840   0.16875   0.41625   0.00000  Uiso   1.00
C989   C     0.30005   0.18075   0.40725   0.00000  Uiso   1.00
C990   C     0.32410   0.18550   0.34250   0.00000  Uiso   1.00
C991   C     0.31860   0.17500   0.42975   0.00000  Uiso   1.00
C992   C     0.30615   0.19975   0.32200   0.00000  Uiso   1.00
C993   C     0.29545   0.19725   0.35550   0.00000  Uiso   1.00
C994   C     0.33010   0.18200   0.39750   0.00000  Uiso   1.00
Al995  Al    0.37470   0.12500   0.37475   0.00000  Uiso   1.00
O996   O     0.37500   0.15250   0.31100   0.00000  Uiso   1.00
O997   O     0.39095   0.08175   0.36225   0.00000  Uiso   1.00
O998   O     0.48438   0.04500   0.39000   0.00000  Uiso   1.00
O999   O     0.39785   0.10025   0.29000   0.00000  Uiso   1.00
O1000  O     0.47890   0.03750   0.46575   0.00000  Uiso   1.00
C1001  C     0.40163   0.08025   0.33500   0.00000  Uiso   1.00
C1002  C     0.47340   0.04375   0.41625   0.00000  Uiso   1.00
C1003  C     0.42505   0.05575   0.40725   0.00000  Uiso   1.00
C1004  C     0.44910   0.06050   0.34250   0.00000  Uiso   1.00
C1005  C     0.44360   0.05000   0.42975   0.00000  Uiso   1.00
C1006  C     0.43115   0.07475   0.32200   0.00000  Uiso   1.00
C1007  C     0.42045   0.07225   0.35550   0.00000  Uiso   1.00
C1008  C     0.45510   0.05700   0.39750   0.00000  Uiso   1.00
Al1009 Al    0.74970   0.00000   0.49975   0.00000  Uiso   1.00
O1010  O     0.50000   0.22250   0.43600   0.00000  Uiso   1.00
O1011  O     0.51595   0.04325   0.48725   0.00000  Uiso   1.00
O1012  O     0.60938   0.08000   0.26500   0.00000  Uiso   1.00
O1013  O     0.52285   0.02475   0.41500   0.00000  Uiso   1.00
O1014  O     0.60390   0.08750   0.34075   0.00000  Uiso   1.00
C1015  C     0.52663   0.04475   0.46000   0.00000  Uiso   1.00
C1016  C     0.59840   0.08125   0.29125   0.00000  Uiso   1.00
C1017  C     0.55005   0.06925   0.28225   0.00000  Uiso   1.00
C1018  C     0.57410   0.06450   0.46750   0.00000  Uiso   1.00
C1019  C     0.56860   0.07500   0.30475   0.00000  Uiso   1.00
C1020  C     0.55615   0.05025   0.44700   0.00000  Uiso   1.00
C1021  C     0.54545   0.05275   0.48050   0.00000  Uiso   1.00
C1022  C     0.58010   0.06800   0.27250   0.00000  Uiso   1.00
Al1023 Al    0.62470   0.12500   0.49975   0.00000  Uiso   1.00
O1024  O     0.62500   0.09750   0.43600   0.00000  Uiso   1.00
O1025  O     0.64095   0.16825   0.48725   0.00000  Uiso   1.00
O1026  O     0.73438   0.20500   0.26500   0.00000  Uiso   1.00
O1027  O     0.64785   0.14975   0.41500   0.00000  Uiso   1.00
O1028  O     0.72890   0.21250   0.34075   0.00000  Uiso   1.00
C1029  C     0.65163   0.16975   0.46000   0.00000  Uiso   1.00
C1030  C     0.72340   0.20625   0.29125   0.00000  Uiso   1.00
C1031  C     0.67505   0.19425   0.28225   0.00000  Uiso   1.00
C1032  C     0.69910   0.18950   0.46750   0.00000  Uiso   1.00
C1033  C     0.69360   0.20000   0.30475   0.00000  Uiso   1.00
C1034  C     0.68115   0.17525   0.44700   0.00000  Uiso   1.00
C1035  C     0.67045   0.17775   0.48050   0.00000  Uiso   1.00
C1036  C     0.70510   0.19300   0.27250   0.00000  Uiso   1.00
Al1037 Al    0.74970   0.00000   0.37475   0.00000  Uiso   1.00
O1038  O     0.50000   0.02750   0.31100   0.00000  Uiso   1.00
O1039  O     0.51595   0.20675   0.36225   0.00000  Uiso   1.00
O1040  O     0.60938   0.17000   0.39000   0.00000  Uiso   1.00
O1041  O     0.52285   0.22525   0.29000   0.00000  Uiso   1.00
O1042  O     0.60390   0.16250   0.46575   0.00000  Uiso   1.00
C1043  C     0.52663   0.20525   0.33500   0.00000  Uiso   1.00
C1044  C     0.59840   0.16875   0.41625   0.00000  Uiso   1.00
C1045  C     0.55005   0.18075   0.40725   0.00000  Uiso   1.00
C1046  C     0.57410   0.18550   0.34250   0.00000  Uiso   1.00
C1047  C     0.56860   0.17500   0.42975   0.00000  Uiso   1.00
C1048  C     0.55615   0.19975   0.32200   0.00000  Uiso   1.00
C1049  C     0.54545   0.19725   0.35550   0.00000  Uiso   1.00
C1050  C     0.58010   0.18200   0.39750   0.00000  Uiso   1.00
Al1051 Al    0.62470   0.12500   0.37475   0.00000  Uiso   1.00
O1052  O     0.62500   0.15250   0.31100   0.00000  Uiso   1.00
O1053  O     0.64095   0.08175   0.36225   0.00000  Uiso   1.00
O1054  O     0.73438   0.04500   0.39000   0.00000  Uiso   1.00
O1055  O     0.64785   0.10025   0.29000   0.00000  Uiso   1.00
O1056  O     0.72890   0.03750   0.46575   0.00000  Uiso   1.00
C1057  C     0.65163   0.08025   0.33500   0.00000  Uiso   1.00
C1058  C     0.72340   0.04375   0.41625   0.00000  Uiso   1.00
C1059  C     0.67505   0.05575   0.40725   0.00000  Uiso   1.00
C1060  C     0.69910   0.06050   0.34250   0.00000  Uiso   1.00
C1061  C     0.69360   0.05000   0.42975   0.00000  Uiso   1.00
C1062  C     0.68115   0.07475   0.32200   0.00000  Uiso   1.00
C1063  C     0.67045   0.07225   0.35550   0.00000  Uiso   1.00
C1064  C     0.70510   0.05700   0.39750   0.00000  Uiso   1.00
Al1065 Al    0.99970   0.00000   0.49975   0.00000  Uiso   1.00
O1066  O     0.75000   0.22250   0.43600   0.00000  Uiso   1.00
O1067  O     0.76595   0.04325   0.48725   0.00000  Uiso   1.00
O1068  O     0.85938   0.08000   0.26500   0.00000  Uiso   1.00
O1069  O     0.77285   0.02475   0.41500   0.00000  Uiso   1.00
O1070  O     0.85390   0.08750   0.34075   0.00000  Uiso   1.00
C1071  C     0.77663   0.04475   0.46000   0.00000  Uiso   1.00
C1072  C     0.84840   0.08125   0.29125   0.00000  Uiso   1.00
C1073  C     0.80005   0.06925   0.28225   0.00000  Uiso   1.00
C1074  C     0.82410   0.06450   0.46750   0.00000  Uiso   1.00
C1075  C     0.81860   0.07500   0.30475   0.00000  Uiso   1.00
C1076  C     0.80615   0.05025   0.44700   0.00000  Uiso   1.00
C1077  C     0.79545   0.05275   0.48050   0.00000  Uiso   1.00
C1078  C     0.83010   0.06800   0.27250   0.00000  Uiso   1.00
Al1079 Al    0.87470   0.12500   0.49975   0.00000  Uiso   1.00
O1080  O     0.87500   0.09750   0.43600   0.00000  Uiso   1.00
O1081  O     0.89095   0.16825   0.48725   0.00000  Uiso   1.00
O1082  O     0.98438   0.20500   0.26500   0.00000  Uiso   1.00
O1083  O     0.89785   0.14975   0.41500   0.00000  Uiso   1.00
O1084  O     0.97890   0.21250   0.34075   0.00000  Uiso   1.00
C1085  C     0.90163   0.16975   0.46000   0.00000  Uiso   1.00
C1086  C     0.97340   0.20625   0.29125   0.00000  Uiso   1.00
C1087  C     0.92505   0.19425   0.28225   0.00000  Uiso   1.00
C1088  C     0.94910   0.18950   0.46750   0.00000  Uiso   1.00
C1089  C     0.94360   0.20000   0.30475   0.00000  Uiso   1.00
C1090  C     0.93115   0.17525   0.44700   0.00000  Uiso   1.00
C1091  C     0.92045   0.17775   0.48050   0.00000  Uiso   1.00
C1092  C     0.95510   0.19300   0.27250   0.00000  Uiso   1.00
Al1093 Al    0.99970   0.00000   0.37475   0.00000  Uiso   1.00
O1094  O     0.75000   0.02750   0.31100   0.00000  Uiso   1.00
O1095  O     0.76595   0.20675   0.36225   0.00000  Uiso   1.00
O1096  O     0.85938   0.17000   0.39000   0.00000  Uiso   1.00
O1097  O     0.77285   0.22525   0.29000   0.00000  Uiso   1.00
O1098  O     0.85390   0.16250   0.46575   0.00000  Uiso   1.00
C1099  C     0.77663   0.20525   0.33500   0.00000  Uiso   1.00
C1100  C     0.84840   0.16875   0.41625   0.00000  Uiso   1.00
C1101  C     0.80005   0.18075   0.40725   0.00000  Uiso   1.00
C1102  C     0.82410   0.18550   0.34250   0.00000  Uiso   1.00
C1103  C     0.81860   0.17500   0.42975   0.00000  Uiso   1.00
C1104  C     0.80615   0.19975   0.32200   0.00000  Uiso   1.00
C1105  C     0.79545   0.19725   0.35550   0.00000  Uiso   1.00
C1106  C     0.83010   0.18200   0.39750   0.00000  Uiso   1.00
Al1107 Al    0.87470   0.12500   0.37475   0.00000  Uiso   1.00
O1108  O     0.87500   0.15250   0.31100   0.00000  Uiso   1.00
O1109  O     0.89095   0.08175   0.36225   0.00000  Uiso   1.00
O1110  O     0.98438   0.04500   0.39000   0.00000  Uiso   1.00
O1111  O     0.89785   0.10025   0.29000   0.00000  Uiso   1.00
O1112  O     0.97890   0.03750   0.46575   0.00000  Uiso   1.00
C1113  C     0.90163   0.08025   0.33500   0.00000  Uiso   1.00
C1114  C     0.97340   0.04375   0.41625   0.00000  Uiso   1.00
C1115  C     0.92505   0.05575   0.40725   0.00000  Uiso   1.00
C1116  C     0.94910   0.06050   0.34250   0.00000  Uiso   1.00
C1117  C     0.94360   0.05000   0.42975   0.00000  Uiso   1.00
C1118  C     0.93115   0.07475   0.32200   0.00000  Uiso   1.00
C1119  C     0.92045   0.07225   0.35550   0.00000  Uiso   1.00
C1120  C     0.95510   0.05700   0.39750   0.00000  Uiso   1.00
Al1121 Al    0.24970   0.25000   0.49975   0.00000  Uiso   1.00
O1122  O     0.00000   0.47250   0.43600   0.00000  Uiso   1.00
O1123  O     0.01595   0.29325   0.48725   0.00000  Uiso   1.00
O1124  O     0.10938   0.33000   0.26500   0.00000  Uiso   1.00
O1125  O     0.02285   0.27475   0.41500   0.00000  Uiso   1.00
O1126  O     0.10390   0.33750   0.34075   0.00000  Uiso   1.00
C1127  C     0.02663   0.29475   0.46000   0.00000  Uiso   1.00
C1128  C     0.09840   0.33125   0.29125   0.00000  Uiso   1.00
C1129  C     0.05005   0.31925   0.28225   0.00000  Uiso   1.00
C1130  C     0.07410   0.31450   0.46750   0.00000  Uiso   1.00
C1131  C     0.06860   0.32500   0.30475   0.00000  Uiso   1.00
C1132  C     0.05615   0.30025   0.44700   0.00000  Uiso   1.00
C1133  C     0.04545   0.30275   0.48050   0.00000  Uiso   1.00
C1134  C     0.08010   0.31800   0.27250   0.00000  Uiso   1.00
Al1135 Al    0.12470   0.37500   0.49975   0.00000  Uiso   1.00
O1136  O     0.12500   0.34750   0.43600   0.00000  Uiso   1.00
O1137  O     0.14095   0.41825   0.48725   0.00000  Uiso   1.00
O1138  O     0.23438   0.45500   0.26500   0.00000  Uiso   1.00
O1139  O     0.14785   0.39975   0.41500   0.00000  Uiso   1.00
O1140  O     0.22890   0.46250   0.34075   0.00000  Uiso   1.00
C1141  C     0.15163   0.41975   0.46000   0.00000  Uiso   1.00
C1142  C     0.22340   0.45625   0.29125   0.00000  Uiso   1.00
C1143  C     0.17505   0.44425   0.28225   0.00000  Uiso   1.00
C1144  C     0.19910   0.43950   0.46750   0.00000  Uiso   1.00
C1145  C     0.19360   0.45000   0.30475   0.00000  Uiso   1.00
C1146  C     0.18115   0.42525   0.44700   0.00000  Uiso   1.00
C1147  C     0.17045   0.42775   0.48050   0.00000  Uiso   1.00
C1148  C     0.20510   0.44300   0.27250   0.00000  Uiso   1.00
Al1149 Al    0.24970   0.25000   0.37475   0.00000  Uiso   1.00
O1150  O     0.00000   0.27750   0.31100   0.00000  Uiso   1.00
O1151  O     0.01595   0.45675   0.36225   0.00000  Uiso   1.00
O1152  O     0.10938   0.42000   0.39000   0.00000  Uiso   1.00
O1153  O     0.02285   0.47525   0.29000   0.00000  Uiso   1.00
O1154  O     0.10390   0.41250   0.46575   0.00000  Uiso   1.00
C1155  C     0.02663   0.45525   0.33500   0.00000  Uiso   1.00
C1156  C     0.09840   0.41875   0.41625   0.00000  Uiso   1.00
C1157  C     0.05005   0.43075   0.40725   0.00000  Uiso   1.00
C1158  C     0.07410   0.43550   0.34250   0.00000  Uiso   1.00
C1159  C     0.06860   0.42500   0.42975   0.00000  Uiso   1.00
C1160  C     0.05615   0.44975   0.32200   0.00000  Uiso   1.00
C1161  C     0.04545   0.44725   0.35550   0.00000  Uiso   1.00
C1162  C     0.08010   0.43200   0.39750   0.00000  Uiso   1.00
Al1163 Al    0.12470   0.37500   0.37475   0.00000  Uiso   1.00
O1164  O     0.12500   0.40250   0.31100   0.00000  Uiso   1.00
O1165  O     0.14095   0.33175   0.36225   0.00000  Uiso   1.00
O1166  O     0.23438   0.29500   0.39000   0.00000  Uiso   1.00
O1167  O     0.14785   0.35025   0.29000   0.00000  Uiso   1.00
O1168  O     0.22890   0.28750   0.46575   0.00000  Uiso   1.00
C1169  C     0.15163   0.33025   0.33500   0.00000  Uiso   1.00
C1170  C     0.22340   0.29375   0.41625   0.00000  Uiso   1.00
C1171  C     0.17505   0.30575   0.40725   0.00000  Uiso   1.00
C1172  C     0.19910   0.31050   0.34250   0.00000  Uiso   1.00
C1173  C     0.19360   0.30000   0.42975   0.00000  Uiso   1.00
C1174  C     0.18115   0.32475   0.32200   0.00000  Uiso   1.00
C1175  C     0.17045   0.32225   0.35550   0.00000  Uiso   1.00
C1176  C     0.20510   0.30700   0.39750   0.00000  Uiso   1.00
Al1177 Al    0.49970   0.25000   0.49975   0.00000  Uiso   1.00
O1178  O     0.25000   0.47250   0.43600   0.00000  Uiso   1.00
O1179  O     0.26595   0.29325   0.48725   0.00000  Uiso   1.00
O1180  O     0.35938   0.33000   0.26500   0.00000  Uiso   1.00
O1181  O     0.27285   0.27475   0.41500   0.00000  Uiso   1.00
O1182  O     0.35390   0.33750   0.34075   0.00000  Uiso   1.00
C1183  C     0.27663   0.29475   0.46000   0.00000  Uiso   1.00
C1184  C     0.34840   0.33125   0.29125   0.00000  Uiso   1.00
C1185  C     0.30005   0.31925   0.28225   0.00000  Uiso   1.00
C1186  C     0.32410   0.31450   0.46750   0.00000  Uiso   1.00
C1187  C     0.31860   0.32500   0.30475   0.00000  Uiso   1.00
C1188  C     0.30615   0.30025   0.44700   0.00000  Uiso   1.00
C1189  C     0.29545   0.30275   0.48050   0.00000  Uiso   1.00
C1190  C     0.33010   0.31800   0.27250   0.00000  Uiso   1.00
Al1191 Al    0.37470   0.37500   0.49975   0.00000  Uiso   1.00
O1192  O     0.37500   0.34750   0.43600   0.00000  Uiso   1.00
O1193  O     0.39095   0.41825   0.48725   0.00000  Uiso   1.00
O1194  O     0.48438   0.45500   0.26500   0.00000  Uiso   1.00
O1195  O     0.39785   0.39975   0.41500   0.00000  Uiso   1.00
O1196  O     0.47890   0.46250   0.34075   0.00000  Uiso   1.00
C1197  C     0.40163   0.41975   0.46000   0.00000  Uiso   1.00
C1198  C     0.47340   0.45625   0.29125   0.00000  Uiso   1.00
C1199  C     0.42505   0.44425   0.28225   0.00000  Uiso   1.00
C1200  C     0.44910   0.43950   0.46750   0.00000  Uiso   1.00
C1201  C     0.44360   0.45000   0.30475   0.00000  Uiso   1.00
C1202  C     0.43115   0.42525   0.44700   0.00000  Uiso   1.00
C1203  C     0.42045   0.42775   0.48050   0.00000  Uiso   1.00
C1204  C     0.45510   0.44300   0.27250   0.00000  Uiso   1.00
Al1205 Al    0.49970   0.25000   0.37475   0.00000  Uiso   1.00
O1206  O     0.25000   0.27750   0.31100   0.00000  Uiso   1.00
O1207  O     0.26595   0.45675   0.36225   0.00000  Uiso   1.00
O1208  O     0.35938   0.42000   0.39000   0.00000  Uiso   1.00
O1209  O     0.27285   0.47525   0.29000   0.00000  Uiso   1.00
O1210  O     0.35390   0.41250   0.46575   0.00000  Uiso   1.00
C1211  C     0.27663   0.45525   0.33500   0.00000  Uiso   1.00
C1212  C     0.34840   0.41875   0.41625   0.00000  Uiso   1.00
C1213  C     0.30005   0.43075   0.40725   0.00000  Uiso   1.00
C1214  C     0.32410   0.43550   0.34250   0.00000  Uiso   1.00
C1215  C     0.31860   0.42500   0.42975   0.00000  Uiso   1.00
C1216  C     0.30615   0.44975   0.32200   0.00000  Uiso   1.00
C1217  C     0.29545   0.44725   0.35550   0.00000  Uiso   1.00
C1218  C     0.33010   0.43200   0.39750   0.00000  Uiso   1.00
Al1219 Al    0.37470   0.37500   0.37475   0.00000  Uiso   1.00
O1220  O     0.37500   0.40250   0.31100   0.00000  Uiso   1.00
O1221  O     0.39095   0.33175   0.36225   0.00000  Uiso   1.00
O1222  O     0.48438   0.29500   0.39000   0.00000  Uiso   1.00
O1223  O     0.39785   0.35025   0.29000   0.00000  Uiso   1.00
O1224  O     0.47890   0.28750   0.46575   0.00000  Uiso   1.00
C1225  C     0.40163   0.33025   0.33500   0.00000  Uiso   1.00
C1226  C     0.47340   0.29375   0.41625   0.00000  Uiso   1.00
C1227  C     0.42505   0.30575   0.40725   0.00000  Uiso   1.00
C1228  C     0.44910   0.31050   0.34250   0.00000  Uiso   1.00
C1229  C     0.44360   0.30000   0.42975   0.00000  Uiso   1.00
C1230  C     0.43115   0.32475   0.32200   0.00000  Uiso   1.00
C1231  C     0.42045   0.32225   0.35550   0.00000  Uiso   1.00
C1232  C     0.45510   0.30700   0.39750   0.00000  Uiso   1.00
Al1233 Al    0.74970   0.25000   0.49975   0.00000  Uiso   1.00
O1234  O     0.50000   0.47250   0.43600   0.00000  Uiso   1.00
O1235  O     0.51595   0.29325   0.48725   0.00000  Uiso   1.00
O1236  O     0.60938   0.33000   0.26500   0.00000  Uiso   1.00
O1237  O     0.52285   0.27475   0.41500   0.00000  Uiso   1.00
O1238  O     0.60390   0.33750   0.34075   0.00000  Uiso   1.00
C1239  C     0.52663   0.29475   0.46000   0.00000  Uiso   1.00
C1240  C     0.59840   0.33125   0.29125   0.00000  Uiso   1.00
C1241  C     0.55005   0.31925   0.28225   0.00000  Uiso   1.00
C1242  C     0.57410   0.31450   0.46750   0.00000  Uiso   1.00
C1243  C     0.56860   0.32500   0.30475   0.00000  Uiso   1.00
C1244  C     0.55615   0.30025   0.44700   0.00000  Uiso   1.00
C1245  C     0.54545   0.30275   0.48050   0.00000  Uiso   1.00
C1246  C     0.58010   0.31800   0.27250   0.00000  Uiso   1.00
Al1247 Al    0.62470   0.37500   0.49975   0.00000  Uiso   1.00
O1248  O     0.62500   0.34750   0.43600   0.00000  Uiso   1.00
O1249  O     0.64095   0.41825   0.48725   0.00000  Uiso   1.00
O1250  O     0.73438   0.45500   0.26500   0.00000  Uiso   1.00
O1251  O     0.64785   0.39975   0.41500   0.00000  Uiso   1.00
O1252  O     0.72890   0.46250   0.34075   0.00000  Uiso   1.00
C1253  C     0.65163   0.41975   0.46000   0.00000  Uiso   1.00
C1254  C     0.72340   0.45625   0.29125   0.00000  Uiso   1.00
C1255  C     0.67505   0.44425   0.28225   0.00000  Uiso   1.00
C1256  C     0.69910   0.43950   0.46750   0.00000  Uiso   1.00
C1257  C     0.69360   0.45000   0.30475   0.00000  Uiso   1.00
C1258  C     0.68115   0.42525   0.44700   0.00000  Uiso   1.00
C1259  C     0.67045   0.42775   0.48050   0.00000  Uiso   1.00
C1260  C     0.70510   0.44300   0.27250   0.00000  Uiso   1.00
Al1261 Al    0.74970   0.25000   0.37475   0.00000  Uiso   1.00
O1262  O     0.50000   0.27750   0.31100   0.00000  Uiso   1.00
O1263  O     0.51595   0.45675   0.36225   0.00000  Uiso   1.00
O1264  O     0.60938   0.42000   0.39000   0.00000  Uiso   1.00
O1265  O     0.52285   0.47525   0.29000   0.00000  Uiso   1.00
O1266  O     0.60390   0.41250   0.46575   0.00000  Uiso   1.00
C1267  C     0.52663   0.45525   0.33500   0.00000  Uiso   1.00
C1268  C     0.59840   0.41875   0.41625   0.00000  Uiso   1.00
C1269  C     0.55005   0.43075   0.40725   0.00000  Uiso   1.00
C1270  C     0.57410   0.43550   0.34250   0.00000  Uiso   1.00
C1271  C     0.56860   0.42500   0.42975   0.00000  Uiso   1.00
C1272  C     0.55615   0.44975   0.32200   0.00000  Uiso   1.00
C1273  C     0.54545   0.44725   0.35550   0.00000  Uiso   1.00
C1274  C     0.58010   0.43200   0.39750   0.00000  Uiso   1.00
Al1275 Al    0.62470   0.37500   0.37475   0.00000  Uiso   1.00
O1276  O     0.62500   0.40250   0.31100   0.00000  Uiso   1.00
O1277  O     0.64095   0.33175   0.36225   0.00000  Uiso   1.00
O1278  O     0.73438   0.29500   0.39000   0.00000  Uiso   1.00
O1279  O     0.64785   0.35025   0.29000   0.00000  Uiso   1.00
O1280  O     0.72890   0.28750   0.46575   0.00000  Uiso   1.00
C1281  C     0.65163   0.33025   0.33500   0.00000  Uiso   1.00
C1282  C     0.72340   0.29375   0.41625   0.00000  Uiso   1.00
C1283  C     0.67505   0.30575   0.40725   0.00000  Uiso   1.00
C1284  C     0.69910   0.31050   0.34250   0.00000  Uiso   1.00
C1285  C     0.69360   0.30000   0.42975   0.00000  Uiso   1.00
C1286  C     0.68115   0.32475   0.32200   0.00000  Uiso   1.00
C1287  C     0.67045   0.32225   0.35550   0.00000  Uiso   1.00
C1288  C     0.70510   0.30700   0.39750   0.00000  Uiso   1.00
Al1289 Al    0.99970   0.25000   0.49975   0.00000  Uiso   1.00
O1290  O     0.75000   0.47250   0.43600   0.00000  Uiso   1.00
O1291  O     0.76595   0.29325   0.48725   0.00000  Uiso   1.00
O1292  O     0.85938   0.33000   0.26500   0.00000  Uiso   1.00
O1293  O     0.77285   0.27475   0.41500   0.00000  Uiso   1.00
O1294  O     0.85390   0.33750   0.34075   0.00000  Uiso   1.00
C1295  C     0.77663   0.29475   0.46000   0.00000  Uiso   1.00
C1296  C     0.84840   0.33125   0.29125   0.00000  Uiso   1.00
C1297  C     0.80005   0.31925   0.28225   0.00000  Uiso   1.00
C1298  C     0.82410   0.31450   0.46750   0.00000  Uiso   1.00
C1299  C     0.81860   0.32500   0.30475   0.00000  Uiso   1.00
C1300  C     0.80615   0.30025   0.44700   0.00000  Uiso   1.00
C1301  C     0.79545   0.30275   0.48050   0.00000  Uiso   1.00
C1302  C     0.83010   0.31800   0.27250   0.00000  Uiso   1.00
Al1303 Al    0.87470   0.37500   0.49975   0.00000  Uiso   1.00
O1304  O     0.87500   0.34750   0.43600   0.00000  Uiso   1.00
O1305  O     0.89095   0.41825   0.48725   0.00000  Uiso   1.00
O1306  O     0.98438   0.45500   0.26500   0.00000  Uiso   1.00
O1307  O     0.89785   0.39975   0.41500   0.00000  Uiso   1.00
O1308  O     0.97890   0.46250   0.34075   0.00000  Uiso   1.00
C1309  C     0.90163   0.41975   0.46000   0.00000  Uiso   1.00
C1310  C     0.97340   0.45625   0.29125   0.00000  Uiso   1.00
C1311  C     0.92505   0.44425   0.28225   0.00000  Uiso   1.00
C1312  C     0.94910   0.43950   0.46750   0.00000  Uiso   1.00
C1313  C     0.94360   0.45000   0.30475   0.00000  Uiso   1.00
C1314  C     0.93115   0.42525   0.44700   0.00000  Uiso   1.00
C1315  C     0.92045   0.42775   0.48050   0.00000  Uiso   1.00
C1316  C     0.95510   0.44300   0.27250   0.00000  Uiso   1.00
Al1317 Al    0.99970   0.25000   0.37475   0.00000  Uiso   1.00
O1318  O     0.75000   0.27750   0.31100   0.00000  Uiso   1.00
O1319  O     0.76595   0.45675   0.36225   0.00000  Uiso   1.00
O1320  O     0.85938   0.42000   0.39000   0.00000  Uiso   1.00
O1321  O     0.77285   0.47525   0.29000   0.00000  Uiso   1.00
O1322  O     0.85390   0.41250   0.46575   0.00000  Uiso   1.00
C1323  C     0.77663   0.45525   0.33500   0.00000  Uiso   1.00
C1324  C     0.84840   0.41875   0.41625   0.00000  Uiso   1.00
C1325  C     0.80005   0.43075   0.40725   0.00000  Uiso   1.00
C1326  C     0.82410   0.43550   0.34250   0.00000  Uiso   1.00
C1327  C     0.81860   0.42500   0.42975   0.00000  Uiso   1.00
C1328  C     0.80615   0.44975   0.32200   0.00000  Uiso   1.00
C1329  C     0.79545   0.44725   0.35550   0.00000  Uiso   1.00
C1330  C     0.83010   0.43200   0.39750   0.00000  Uiso   1.00
Al1331 Al    0.87470   0.37500   0.37475   0.00000  Uiso   1.00
O1332  O     0.87500   0.40250   0.31100   0.00000  Uiso   1.00
O1333  O     0.89095   0.33175   0.36225   0.00000  Uiso   1.00
O1334  O     0.98438   0.29500   0.39000   0.00000  Uiso   1.00
O1335  O     0.89785   0.35025   0.29000   0.00000  Uiso   1.00
O1336  O     0.97890   0.28750   0.46575   0.00000  Uiso   1.00
C1337  C     0.90163   0.33025   0.33500   0.00000  Uiso   1.00
C1338  C     0.97340   0.29375   0.41625   0.00000  Uiso   1.00
C1339  C     0.92505   0.30575   0.40725   0.00000  Uiso   1.00
C1340  C     0.94910   0.31050   0.34250   0.00000  Uiso   1.00
C1341  C     0.94360   0.30000   0.42975   0.00000  Uiso   1.00
C1342  C     0.93115   0.32475   0.32200   0.00000  Uiso   1.00
C1343  C     0.92045   0.32225   0.35550   0.00000  Uiso   1.00
C1344  C     0.95510   0.30700   0.39750   0.00000  Uiso   1.00
Al1345 Al    0.24970   0.50000   0.49975   0.00000  Uiso   1.00
O1346  O     0.00000   0.72250   0.43600   0.00000  Uiso   1.00
O1347  O     0.01595   0.54325   0.48725   0.00000  Uiso   1.00
O1348  O     0.10938   0.58000   0.26500   0.00000  Uiso   1.00
O1349  O     0.02285   0.52475   0.41500   0.00000  Uiso   1.00
O1350  O     0.10390   0.58750   0.34075   0.00000  Uiso   1.00
C1351  C     0.02663   0.54475   0.46000   0.00000  Uiso   1.00
C1352  C     0.09840   0.58125   0.29125   0.00000  Uiso   1.00
C1353  C     0.05005   0.56925   0.28225   0.00000  Uiso   1.00
C1354  C     0.07410   0.56450   0.46750   0.00000  Uiso   1.00
C1355  C     0.06860   0.57500   0.30475   0.00000  Uiso   1.00
C1356  C     0.05615   0.55025   0.44700   0.00000  Uiso   1.00
C1357  C     0.04545   0.55275   0.48050   0.00000  Uiso   1.00
C1358  C     0.08010   0.56800   0.27250   0.00000  Uiso   1.00
Al1359 Al    0.12470   0.62500   0.49975   0.00000  Uiso   1.00
O1360  O     0.12500   0.59750   0.43600   0.00000  Uiso   1.00
O1361  O     0.14095   0.66825   0.48725   0.00000  Uiso   1.00
O1362  O     0.23438   0.70500   0.26500   0.00000  Uiso   1.00
O1363  O     0.14785   0.64975   0.41500   0.00000  Uiso   1.00
O1364  O     0.22890   0.71250   0.34075   0.00000  Uiso   1.00
C1365  C     0.15163   0.66975   0.46000   0.00000  Uiso   1.00
C1366  C     0.22340   0.70625   0.29125   0.00000  Uiso   1.00
C1367  C     0.17505   0.69425   0.28225   0.00000  Uiso   1.00
C1368  C     0.19910   0.68950   0.46750   0.00000  Uiso   1.00
C1369  C     0.19360   0.70000   0.30475   0.00000  Uiso   1.00
C1370  C     0.18115   0.67525   0.44700   0.00000  Uiso   1.00
C1371  C     0.17045   0.67775   0.48050   0.00000  Uiso   1.00
C1372  C     0.20510   0.69300   0.27250   0.00000  Uiso   1.00
Al1373 Al    0.24970   0.50000   0.37475   0.00000  Uiso   1.00
O1374  O     0.00000   0.52750   0.31100   0.00000  Uiso   1.00
O1375  O     0.01595   0.70675   0.36225   0.00000  Uiso   1.00
O1376  O     0.10938   0.67000   0.39000   0.00000  Uiso   1.00
O1377  O     0.02285   0.72525   0.29000   0.00000  Uiso   1.00
O1378  O     0.10390   0.66250   0.46575   0.00000  Uiso   1.00
C1379  C     0.02663   0.70525   0.33500   0.00000  Uiso   1.00
C1380  C     0.09840   0.66875   0.41625   0.00000  Uiso   1.00
C1381  C     0.05005   0.68075   0.40725   0.00000  Uiso   1.00
C1382  C     0.07410   0.68550   0.34250   0.00000  Uiso   1.00
C1383  C     0.06860   0.67500   0.42975   0.00000  Uiso   1.00
C1384  C     0.05615   0.69975   0.32200   0.00000  Uiso   1.00
C1385  C     0.04545   0.69725   0.35550   0.00000  Uiso   1.00
C1386  C     0.08010   0.68200   0.39750   0.00000  Uiso   1.00
Al1387 Al    0.12470   0.62500   0.37475   0.00000  Uiso   1.00
O1388  O     0.12500   0.65250   0.31100   0.00000  Uiso   1.00
O1389  O     0.14095   0.58175   0.36225   0.00000  Uiso   1.00
O1390  O     0.23438   0.54500   0.39000   0.00000  Uiso   1.00
O1391  O     0.14785   0.60025   0.29000   0.00000  Uiso   1.00
O1392  O     0.22890   0.53750   0.46575   0.00000  Uiso   1.00
C1393  C     0.15163   0.58025   0.33500   0.00000  Uiso   1.00
C1394  C     0.22340   0.54375   0.41625   0.00000  Uiso   1.00
C1395  C     0.17505   0.55575   0.40725   0.00000  Uiso   1.00
C1396  C     0.19910   0.56050   0.34250   0.00000  Uiso   1.00
C1397  C     0.19360   0.55000   0.42975   0.00000  Uiso   1.00
C1398  C     0.18115   0.57475   0.32200   0.00000  Uiso   1.00
C1399  C     0.17045   0.57225   0.35550   0.00000  Uiso   1.00
C1400  C     0.20510   0.55700   0.39750   0.00000  Uiso   1.00
Al1401 Al    0.49970   0.50000   0.49975   0.00000  Uiso   1.00
O1402  O     0.25000   0.72250   0.43600   0.00000  Uiso   1.00
O1403  O     0.26595   0.54325   0.48725   0.00000  Uiso   1.00
O1404  O     0.35938   0.58000   0.26500   0.00000  Uiso   1.00
O1405  O     0.27285   0.52475   0.41500   0.00000  Uiso   1.00
O1406  O     0.35390   0.58750   0.34075   0.00000  Uiso   1.00
C1407  C     0.27663   0.54475   0.46000   0.00000  Uiso   1.00
C1408  C     0.34840   0.58125   0.29125   0.00000  Uiso   1.00
C1409  C     0.30005   0.56925   0.28225   0.00000  Uiso   1.00
C1410  C     0.32410   0.56450   0.46750   0.00000  Uiso   1.00
C1411  C     0.31860   0.57500   0.30475   0.00000  Uiso   1.00
C1412  C     0.30615   0.55025   0.44700   0.00000  Uiso   1.00
C1413  C     0.29545   0.55275   0.48050   0.00000  Uiso   1.00
C1414  C     0.33010   0.56800   0.27250   0.00000  Uiso   1.00
Al1415 Al    0.37470   0.62500   0.49975   0.00000  Uiso   1.00
O1416  O     0.37500   0.59750   0.43600   0.00000  Uiso   1.00
O1417  O     0.39095   0.66825   0.48725   0.00000  Uiso   1.00
O1418  O     0.48438   0.70500   0.26500   0.00000  Uiso   1.00
O1419  O     0.39785   0.64975   0.41500   0.00000  Uiso   1.00
O1420  O     0.47890   0.71250   0.34075   0.00000  Uiso   1.00
C1421  C     0.40163   0.66975   0.46000   0.00000  Uiso   1.00
C1422  C     0.47340   0.70625   0.29125   0.00000  Uiso   1.00
C1423  C     0.42505   0.69425   0.28225   0.00000  Uiso   1.00
C1424  C     0.44910   0.68950   0.46750   0.00000  Uiso   1.00
C1425  C     0.44360   0.70000   0.30475   0.00000  Uiso   1.00
C1426  C     0.43115   0.67525   0.44700   0.00000  Uiso   1.00
C1427  C     0.42045   0.67775   0.48050   0.00000  Uiso   1.00
C1428  C     0.45510   0.69300   0.27250   0.00000  Uiso   1.00
Al1429 Al    0.49970   0.50000   0.37475   0.00000  Uiso   1.00
O1430  O     0.25000   0.52750   0.31100   0.00000  Uiso   1.00
O1431  O     0.26595   0.70675   0.36225   0.00000  Uiso   1.00
O1432  O     0.35938   0.67000   0.39000   0.00000  Uiso   1.00
O1433  O     0.27285   0.72525   0.29000   0.00000  Uiso   1.00
O1434  O     0.35390   0.66250   0.46575   0.00000  Uiso   1.00
C1435  C     0.27663   0.70525   0.33500   0.00000  Uiso   1.00
C1436  C     0.34840   0.66875   0.41625   0.00000  Uiso   1.00
C1437  C     0.30005   0.68075   0.40725   0.00000  Uiso   1.00
C1438  C     0.32410   0.68550   0.34250   0.00000  Uiso   1.00
C1439  C     0.31860   0.67500   0.42975   0.00000  Uiso   1.00
C1440  C     0.30615   0.69975   0.32200   0.00000  Uiso   1.00
C1441  C     0.29545   0.69725   0.35550   0.00000  Uiso   1.00
C1442  C     0.33010   0.68200   0.39750   0.00000  Uiso   1.00
Al1443 Al    0.37470   0.62500   0.37475   0.00000  Uiso   1.00
O1444  O     0.37500   0.65250   0.31100   0.00000  Uiso   1.00
O1445  O     0.39095   0.58175   0.36225   0.00000  Uiso   1.00
O1446  O     0.48438   0.54500   0.39000   0.00000  Uiso   1.00
O1447  O     0.39785   0.60025   0.29000   0.00000  Uiso   1.00
O1448  O     0.47890   0.53750   0.46575   0.00000  Uiso   1.00
C1449  C     0.40163   0.58025   0.33500   0.00000  Uiso   1.00
C1450  C     0.47340   0.54375   0.41625   0.00000  Uiso   1.00
C1451  C     0.42505   0.55575   0.40725   0.00000  Uiso   1.00
C1452  C     0.44910   0.56050   0.34250   0.00000  Uiso   1.00
C1453  C     0.44360   0.55000   0.42975   0.00000  Uiso   1.00
C1454  C     0.43115   0.57475   0.32200   0.00000  Uiso   1.00
C1455  C     0.42045   0.57225   0.35550   0.00000  Uiso   1.00
C1456  C     0.45510   0.55700   0.39750   0.00000  Uiso   1.00
Al1457 Al    0.74970   0.50000   0.49975   0.00000  Uiso   1.00
O1458  O     0.50000   0.72250   0.43600   0.00000  Uiso   1.00
O1459  O     0.51595   0.54325   0.48725   0.00000  Uiso   1.00
O1460  O     0.60938   0.58000   0.26500   0.00000  Uiso   1.00
O1461  O     0.52285   0.52475   0.41500   0.00000  Uiso   1.00
O1462  O     0.60390   0.58750   0.34075   0.00000  Uiso   1.00
C1463  C     0.52663   0.54475   0.46000   0.00000  Uiso   1.00
C1464  C     0.59840   0.58125   0.29125   0.00000  Uiso   1.00
C1465  C     0.55005   0.56925   0.28225   0.00000  Uiso   1.00
C1466  C     0.57410   0.56450   0.46750   0.00000  Uiso   1.00
C1467  C     0.56860   0.57500   0.30475   0.00000  Uiso   1.00
C1468  C     0.55615   0.55025   0.44700   0.00000  Uiso   1.00
C1469  C     0.54545   0.55275   0.48050   0.00000  Uiso   1.00
C1470  C     0.58010   0.56800   0.27250   0.00000  Uiso   1.00
Al1471 Al    0.62470   0.62500   0.49975   0.00000  Uiso   1.00
O1472  O     0.62500   0.59750   0.43600   0.00000  Uiso   1.00
O1473  O     0.64095   0.66825   0.48725   0.00000  Uiso   1.00
O1474  O     0.73438   0.70500   0.26500   0.00000  Uiso   1.00
O1475  O     0.64785   0.64975   0.41500   0.00000  Uiso   1.00
O1476  O     0.72890   0.71250   0.34075   0.00000  Uiso   1.00
C1477  C     0.65163   0.66975   0.46000   0.00000  Uiso   1.00
C1478  C     0.72340   0.70625   0.29125   0.00000  Uiso   1.00
C1479  C     0.67505   0.69425   0.28225   0.00000  Uiso   1.00
C1480  C     0.69910   0.68950   0.46750   0.00000  Uiso   1.00
C1481  C     0.69360   0.70000   0.30475   0.00000  Uiso   1.00
C1482  C     0.68115   0.67525   0.44700   0.00000  Uiso   1.00
C1483  C     0.67045   0.67775   0.48050   0.00000  Uiso   1.00
C1484  C     0.70510   0.69300   0.27250   0.00000  Uiso   1.00
Al1485 Al    0.74970   0.50000   0.37475   0.00000  Uiso   1.00
O1486  O     0.50000   0.52750   0.31100   0.00000  Uiso   1.00
O1487  O     0.51595   0.70675   0.36225   0.00000  Uiso   1.00
O1488  O     0.60938   0.67000   0.39000   0.00000  Uiso   1.00
O1489  O     0.52285   0.72525   0.29000   0.00000  Uiso   1.00
O1490  O     0.60390   0.66250   0.46575   0.00000  Uiso   1.00
C1491  C     0.52663   0.70525   0.33500   0.00000  Uiso   1.00
C1492  C     0.59840   0.66875   0.41625   0.00000  Uiso   1.00
C1493  C     0.55005   0.68075   0.40725   0.00000  Uiso   1.00
C1494  C     0.57410   0.68550   0.34250   0.00000  Uiso   1.00
C1495  C     0.56860   0.67500   0.42975   0.00000  Uiso   1.00
C1496  C     0.55615   0.69975   0.32200   0.00000  Uiso   1.00
C1497  C     0.54545   0.69725   0.35550   0.00000  Uiso   1.00
C1498  C     0.58010   0.68200   0.39750   0.00000  Uiso   1.00
Al1499 Al    0.62470   0.62500   0.37475   0.00000  Uiso   1.00
O1500  O     0.62500   0.65250   0.31100   0.00000  Uiso   1.00
O1501  O     0.64095   0.58175   0.36225   0.00000  Uiso   1.00
O1502  O     0.73438   0.54500   0.39000   0.00000  Uiso   1.00
O1503  O     0.64785   0.60025   0.29000   0.00000  Uiso   1.00
O1504  O     0.72890   0.53750   0.46575   0.00000  Uiso   1.00
C1505  C     0.65163   0.58025   0.33500   0.00000  Uiso   1.00
C1506  C     0.72340   0.54375   0.41625   0.00000  Uiso   1.00
C1507  C     0.67505   0.55575   0.40725   0.00000  Uiso   1.00
C1508  C     0.69910   0.56050   0.34250   0.00000  Uiso   1.00
C1509  C     0.69360   0.55000   0.42975   0.00000  Uiso   1.00
C1510  C     0.68115   0.57475   0.32200   0.00000  Uiso   1.00
C1511  C     0.67045   0.57225   0.35550   0.00000  Uiso   1.00
C1512  C     0.70510   0.55700   0.39750   0.00000  Uiso   1.00
Al1513 Al    0.99970   0.50000   0.49975   0.00000  Uiso   1.00
O1514  O     0.75000   0.72250   0.43600   0.00000  Uiso   1.00
O1515  O     0.76595   0.54325   0.48725   0.00000  Uiso   1.00
O1516  O     0.85938   0.58000   0.26500   0.00000  Uiso   1.00
O1517  O     0.77285   0.52475   0.41500   0.00000  Uiso   1.00
O1518  O     0.85390   0.58750   0.34075   0.00000  Uiso   1.00
C1519  C     0.77663   0.54475   0.46000   0.00000  Uiso   1.00
C1520  C     0.84840   0.58125   0.29125   0.00000  Uiso   1.00
C1521  C     0.80005   0.56925   0.28225   0.00000  Uiso   1.00
C1522  C     0.82410   0.56450   0.46750   0.00000  Uiso   1.00
C1523  C     0.81860   0.57500   0.30475   0.00000  Uiso   1.00
C1524  C     0.80615   0.55025   0.44700   0.00000  Uiso   1.00
C1525  C     0.79545   0.55275   0.48050   0.00000  Uiso   1.00
C1526  C     0.83010   0.56800   0.27250   0.00000  Uiso   1.00
Al1527 Al    0.87470   0.62500   0.49975   0.00000  Uiso   1.00
O1528  O     0.87500   0.59750   0.43600   0.00000  Uiso   1.00
O1529  O     0.89095   0.66825   0.48725   0.00000  Uiso   1.00
O1530  O     0.98438   0.70500   0.26500   0.00000  Uiso   1.00
O1531  O     0.89785   0.64975   0.41500   0.00000  Uiso   1.00
O1532  O     0.97890   0.71250   0.34075   0.00000  Uiso   1.00
C1533  C     0.90163   0.66975   0.46000   0.00000  Uiso   1.00
C1534  C     0.97340   0.70625   0.29125   0.00000  Uiso   1.00
C1535  C     0.92505   0.69425   0.28225   0.00000  Uiso   1.00
C1536  C     0.94910   0.68950   0.46750   0.00000  Uiso   1.00
C1537  C     0.94360   0.70000   0.30475   0.00000  Uiso   1.00
C1538  C     0.93115   0.67525   0.44700   0.00000  Uiso   1.00
C1539  C     0.92045   0.67775   0.48050   0.00000  Uiso   1.00
C1540  C     0.95510   0.69300   0.27250   0.00000  Uiso   1.00
Al1541 Al    0.99970   0.50000   0.37475   0.00000  Uiso   1.00
O1542  O     0.75000   0.52750   0.31100   0.00000  Uiso   1.00
O1543  O     0.76595   0.70675   0.36225   0.00000  Uiso   1.00
O1544  O     0.85938   0.67000   0.39000   0.00000  Uiso   1.00
O1545  O     0.77285   0.72525   0.29000   0.00000  Uiso   1.00
O1546  O     0.85390   0.66250   0.46575   0.00000  Uiso   1.00
C1547  C     0.77663   0.70525   0.33500   0.00000  Uiso   1.00
C1548  C     0.84840   0.66875   0.41625   0.00000  Uiso   1.00
C1549  C     0.80005   0.68075   0.40725   0.00000  Uiso   1.00
C1550  C     0.82410   0.68550   0.34250   0.00000  Uiso   1.00
C1551  C     0.81860   0.67500   0.42975   0.00000  Uiso   1.00
C1552  C     0.80615   0.69975   0.32200   0.00000  Uiso   1.00
C1553  C     0.79545   0.69725   0.35550   0.00000  Uiso   1.00
C1554  C     0.83010   0.68200   0.39750   0.00000  Uiso   1.00
Al1555 Al    0.87470   0.62500   0.37475   0.00000  Uiso   1.00
O1556  O     0.87500   0.65250   0.31100   0.00000  Uiso   1.00
O1557  O     0.89095   0.58175   0.36225   0.00000  Uiso   1.00
O1558  O     0.98438   0.54500   0.39000   0.00000  Uiso   1.00
O1559  O     0.89785   0.60025   0.29000   0.00000  Uiso   1.00
O1560  O     0.97890   0.53750   0.46575   0.00000  Uiso   1.00
C1561  C     0.90163   0.58025   0.33500   0.00000  Uiso   1.00
C1562  C     0.97340   0.54375   0.41625   0.00000  Uiso   1.00
C1563  C     0.92505   0.55575   0.40725   0.00000  Uiso   1.00
C1564  C     0.94910   0.56050   0.34250   0.00000  Uiso   1.00
C1565  C     0.94360   0.55000   0.42975   0.00000  Uiso   1.00
C1566  C     0.93115   0.57475   0.32200   0.00000  Uiso   1.00
C1567  C     0.92045   0.57225   0.35550   0.00000  Uiso   1.00
C1568  C     0.95510   0.55700   0.39750   0.00000  Uiso   1.00
Al1569 Al    0.24970   0.75000   0.49975   0.00000  Uiso   1.00
O1570  O     0.00000   0.97250   0.43600   0.00000  Uiso   1.00
O1571  O     0.01595   0.79325   0.48725   0.00000  Uiso   1.00
O1572  O     0.10938   0.83000   0.26500   0.00000  Uiso   1.00
O1573  O     0.02285   0.77475   0.41500   0.00000  Uiso   1.00
O1574  O     0.10390   0.83750   0.34075   0.00000  Uiso   1.00
C1575  C     0.02663   0.79475   0.46000   0.00000  Uiso   1.00
C1576  C     0.09840   0.83125   0.29125   0.00000  Uiso   1.00
C1577  C     0.05005   0.81925   0.28225   0.00000  Uiso   1.00
C1578  C     0.07410   0.81450   0.46750   0.00000  Uiso   1.00
C1579  C     0.06860   0.82500   0.30475   0.00000  Uiso   1.00
C1580  C     0.05615   0.80025   0.44700   0.00000  Uiso   1.00
C1581  C     0.04545   0.80275   0.48050   0.00000  Uiso   1.00
C1582  C     0.08010   0.81800   0.27250   0.00000  Uiso   1.00
Al1583 Al    0.12470   0.87500   0.49975   0.00000  Uiso   1.00
O1584  O     0.12500   0.84750   0.43600   0.00000  Uiso   1.00
O1585  O     0.14095   0.91825   0.48725   0.00000  Uiso   1.00
O1586  O     0.23438   0.95500   0.26500   0.00000  Uiso   1.00
O1587  O     0.14785   0.89975   0.41500   0.00000  Uiso   1.00
O1588  O     0.22890   0.96250   0.34075   0.00000  Uiso   1.00
C1589  C     0.15163   0.91975   0.46000   0.00000  Uiso   1.00
C1590  C     0.22340   0.95625   0.29125   0.00000  Uiso   1.00
C1591  C     0.17505   0.94425   0.28225   0.00000  Uiso   1.00
C1592  C     0.19910   0.93950   0.46750   0.00000  Uiso   1.00
C1593  C     0.19360   0.95000   0.30475   0.00000  Uiso   1.00
C1594  C     0.18115   0.92525   0.44700   0.00000  Uiso   1.00
C1595  C     0.17045   0.92775   0.48050   0.00000  Uiso   1.00
C1596  C     0.20510   0.94300   0.27250   0.00000  Uiso   1.00
Al1597 Al    0.24970   0.75000   0.37475   0.00000  Uiso   1.00
O1598  O     0.00000   0.77750   0.31100   0.00000  Uiso   1.00
O1599  O     0.01595   0.95675   0.36225   0.00000  Uiso   1.00
O1600  O     0.10938   0.92000   0.39000   0.00000  Uiso   1.00
O1601  O     0.02285   0.97525   0.29000   0.00000  Uiso   1.00
O1602  O     0.10390   0.91250   0.46575   0.00000  Uiso   1.00
C1603  C     0.02663   0.95525   0.33500   0.00000  Uiso   1.00
C1604  C     0.09840   0.91875   0.41625   0.00000  Uiso   1.00
C1605  C     0.05005   0.93075   0.40725   0.00000  Uiso   1.00
C1606  C     0.07410   0.93550   0.34250   0.00000  Uiso   1.00
C1607  C     0.06860   0.92500   0.42975   0.00000  Uiso   1.00
C1608  C     0.05615   0.94975   0.32200   0.00000  Uiso   1.00
C1609  C     0.04545   0.94725   0.35550   0.00000  Uiso   1.00
C1610  C     0.08010   0.93200   0.39750   0.00000  Uiso   1.00
Al1611 Al    0.12470   0.87500   0.37475   0.00000  Uiso   1.00
O1612  O     0.12500   0.90250   0.31100   0.00000  Uiso   1.00
O1613  O     0.14095   0.83175   0.36225   0.00000  Uiso   1.00
O1614  O     0.23438   0.79500   0.39000   0.00000  Uiso   1.00
O1615  O     0.14785   0.85025   0.29000   0.00000  Uiso   1.00
O1616  O     0.22890   0.78750   0.46575   0.00000  Uiso   1.00
C1617  C     0.15163   0.83025   0.33500   0.00000  Uiso   1.00
C1618  C     0.22340   0.79375   0.41625   0.00000  Uiso   1.00
C1619  C     0.17505   0.80575   0.40725   0.00000  Uiso   1.00
C1620  C     0.19910   0.81050   0.34250   0.00000  Uiso   1.00
C1621  C     0.19360   0.80000   0.42975   0.00000  Uiso   1.00
C1622  C     0.18115   0.82475   0.32200   0.00000  Uiso   1.00
C1623  C     0.17045   0.82225   0.35550   0.00000  Uiso   1.00
C1624  C     0.20510   0.80700   0.39750   0.00000  Uiso   1.00
Al1625 Al    0.49970   0.75000   0.49975   0.00000  Uiso   1.00
O1626  O     0.25000   0.97250   0.43600   0.00000  Uiso   1.00
O1627  O     0.26595   0.79325   0.48725   0.00000  Uiso   1.00
O1628  O     0.35938   0.83000   0.26500   0.00000  Uiso   1.00
O1629  O     0.27285   0.77475   0.41500   0.00000  Uiso   1.00
O1630  O     0.35390   0.83750   0.34075   0.00000  Uiso   1.00
C1631  C     0.27663   0.79475   0.46000   0.00000  Uiso   1.00
C1632  C     0.34840   0.83125   0.29125   0.00000  Uiso   1.00
C1633  C     0.30005   0.81925   0.28225   0.00000  Uiso   1.00
C1634  C     0.32410   0.81450   0.46750   0.00000  Uiso   1.00
C1635  C     0.31860   0.82500   0.30475   0.00000  Uiso   1.00
C1636  C     0.30615   0.80025   0.44700   0.00000  Uiso   1.00
C1637  C     0.29545   0.80275   0.48050   0.00000  Uiso   1.00
C1638  C     0.33010   0.81800   0.27250   0.00000  Uiso   1.00
Al1639 Al    0.37470   0.87500   0.49975   0.00000  Uiso   1.00
O1640  O     0.37500   0.84750   0.43600   0.00000  Uiso   1.00
O1641  O     0.39095   0.91825   0.48725   0.00000  Uiso   1.00
O1642  O     0.48438   0.95500   0.26500   0.00000  Uiso   1.00
O1643  O     0.39785   0.89975   0.41500   0.00000  Uiso   1.00
O1644  O     0.47890   0.96250   0.34075   0.00000  Uiso   1.00
C1645  C     0.40163   0.91975   0.46000   0.00000  Uiso   1.00
C1646  C     0.47340   0.95625   0.29125   0.00000  Uiso   1.00
C1647  C     0.42505   0.94425   0.28225   0.00000  Uiso   1.00
C1648  C     0.44910   0.93950   0.46750   0.00000  Uiso   1.00
C1649  C     0.44360   0.95000   0.30475   0.00000  Uiso   1.00
C1650  C     0.43115   0.92525   0.44700   0.00000  Uiso   1.00
C1651  C     0.42045   0.92775   0.48050   0.00000  Uiso   1.00
C1652  C     0.45510   0.94300   0.27250   0.00000  Uiso   1.00
Al1653 Al    0.49970   0.75000   0.37475   0.00000  Uiso   1.00
O1654  O     0.25000   0.77750   0.31100   0.00000  Uiso   1.00
O1655  O     0.26595   0.95675   0.36225   0.00000  Uiso   1.00
O1656  O     0.35938   0.92000   0.39000   0.00000  Uiso   1.00
O1657  O     0.27285   0.97525   0.29000   0.00000  Uiso   1.00
O1658  O     0.35390   0.91250   0.46575   0.00000  Uiso   1.00
C1659  C     0.27663   0.95525   0.33500   0.00000  Uiso   1.00
C1660  C     0.34840   0.91875   0.41625   0.00000  Uiso   1.00
C1661  C     0.30005   0.93075   0.40725   0.00000  Uiso   1.00
C1662  C     0.32410   0.93550   0.34250   0.00000  Uiso   1.00
C1663  C     0.31860   0.92500   0.42975   0.00000  Uiso   1.00
C1664  C     0.30615   0.94975   0.32200   0.00000  Uiso   1.00
C1665  C     0.29545   0.94725   0.35550   0.00000  Uiso   1.00
C1666  C     0.33010   0.93200   0.39750   0.00000  Uiso   1.00
Al1667 Al    0.37470   0.87500   0.37475   0.00000  Uiso   1.00
O1668  O     0.37500   0.90250   0.31100   0.00000  Uiso   1.00
O1669  O     0.39095   0.83175   0.36225   0.00000  Uiso   1.00
O1670  O     0.48438   0.79500   0.39000   0.00000  Uiso   1.00
O1671  O     0.39785   0.85025   0.29000   0.00000  Uiso   1.00
O1672  O     0.47890   0.78750   0.46575   0.00000  Uiso   1.00
C1673  C     0.40163   0.83025   0.33500   0.00000  Uiso   1.00
C1674  C     0.47340   0.79375   0.41625   0.00000  Uiso   1.00
C1675  C     0.42505   0.80575   0.40725   0.00000  Uiso   1.00
C1676  C     0.44910   0.81050   0.34250   0.00000  Uiso   1.00
C1677  C     0.44360   0.80000   0.42975   0.00000  Uiso   1.00
C1678  C     0.43115   0.82475   0.32200   0.00000  Uiso   1.00
C1679  C     0.42045   0.82225   0.35550   0.00000  Uiso   1.00
C1680  C     0.45510   0.80700   0.39750   0.00000  Uiso   1.00
Al1681 Al    0.74970   0.75000   0.49975   0.00000  Uiso   1.00
O1682  O     0.50000   0.97250   0.43600   0.00000  Uiso   1.00
O1683  O     0.51595   0.79325   0.48725   0.00000  Uiso   1.00
O1684  O     0.60938   0.83000   0.26500   0.00000  Uiso   1.00
O1685  O     0.52285   0.77475   0.41500   0.00000  Uiso   1.00
O1686  O     0.60390   0.83750   0.34075   0.00000  Uiso   1.00
C1687  C     0.52663   0.79475   0.46000   0.00000  Uiso   1.00
C1688  C     0.59840   0.83125   0.29125   0.00000  Uiso   1.00
C1689  C     0.55005   0.81925   0.28225   0.00000  Uiso   1.00
C1690  C     0.57410   0.81450   0.46750   0.00000  Uiso   1.00
C1691  C     0.56860   0.82500   0.30475   0.00000  Uiso   1.00
C1692  C     0.55615   0.80025   0.44700   0.00000  Uiso   1.00
C1693  C     0.54545   0.80275   0.48050   0.00000  Uiso   1.00
C1694  C     0.58010   0.81800   0.27250   0.00000  Uiso   1.00
Al1695 Al    0.62470   0.87500   0.49975   0.00000  Uiso   1.00
O1696  O     0.62500   0.84750   0.43600   0.00000  Uiso   1.00
O1697  O     0.64095   0.91825   0.48725   0.00000  Uiso   1.00
O1698  O     0.73438   0.95500   0.26500   0.00000  Uiso   1.00
O1699  O     0.64785   0.89975   0.41500   0.00000  Uiso   1.00
O1700  O     0.72890   0.96250   0.34075   0.00000  Uiso   1.00
C1701  C     0.65163   0.91975   0.46000   0.00000  Uiso   1.00
C1702  C     0.72340   0.95625   0.29125   0.00000  Uiso   1.00
C1703  C     0.67505   0.94425   0.28225   0.00000  Uiso   1.00
C1704  C     0.69910   0.93950   0.46750   0.00000  Uiso   1.00
C1705  C     0.69360   0.95000   0.30475   0.00000  Uiso   1.00
C1706  C     0.68115   0.92525   0.44700   0.00000  Uiso   1.00
C1707  C     0.67045   0.92775   0.48050   0.00000  Uiso   1.00
C1708  C     0.70510   0.94300   0.27250   0.00000  Uiso   1.00
Al1709 Al    0.74970   0.75000   0.37475   0.00000  Uiso   1.00
O1710  O     0.50000   0.77750   0.31100   0.00000  Uiso   1.00
O1711  O     0.51595   0.95675   0.36225   0.00000  Uiso   1.00
O1712  O     0.60938   0.92000   0.39000   0.00000  Uiso   1.00
O1713  O     0.52285   0.97525   0.29000   0.00000  Uiso   1.00
O1714  O     0.60390   0.91250   0.46575   0.00000  Uiso   1.00
C1715  C     0.52663   0.95525   0.33500   0.00000  Uiso   1.00
C1716  C     0.59840   0.91875   0.41625   0.00000  Uiso   1.00
C1717  C     0.55005   0.93075   0.40725   0.00000  Uiso   1.00
C1718  C     0.57410   0.93550   0.34250   0.00000  Uiso   1.00
C1719  C     0.56860   0.92500   0.42975   0.00000  Uiso   1.00
C1720  C     0.55615   0.94975   0.32200   0.00000  Uiso   1.00
C1721  C     0.54545   0.94725   0.35550   0.00000  Uiso   1.00
C1722  C     0.58010   0.93200   0.39750   0.00000  Uiso   1.00
Al1723 Al    0.62470   0.87500   0.37475   0.00000  Uiso   1.00
O1724  O     0.62500   0.90250   0.31100   0.00000  Uiso   1.00
O1725  O     0.64095   0.83175   0.36225   0.00000  Uiso   1.00
O1726  O     0.73438   0.79500   0.39000   0.00000  Uiso   1.00
O1727  O     0.64785   0.85025   0.29000   0.00000  Uiso   1.00
O1728  O     0.72890   0.78750   0.46575   0.00000  Uiso   1.00
C1729  C     0.65163   0.83025   0.33500   0.00000  Uiso   1.00
C1730  C     0.72340   0.79375   0.41625   0.00000  Uiso   1.00
C1731  C     0.67505   0.80575   0.40725   0.00000  Uiso   1.00
C1732  C     0.69910   0.81050   0.34250   0.00000  Uiso   1.00
C1733  C     0.69360   0.80000   0.42975   0.00000  Uiso   1.00
C1734  C     0.68115   0.82475   0.32200   0.00000  Uiso   1.00
C1735  C     0.67045   0.82225   0.35550   0.00000  Uiso   1.00
C1736  C     0.70510   0.80700   0.39750   0.00000  Uiso   1.00
Al1737 Al    0.99970   0.75000   0.49975   0.00000  Uiso   1.00
O1738  O     0.75000   0.97250   0.43600   0.00000  Uiso   1.00
O1739  O     0.76595   0.79325   0.48725   0.00000  Uiso   1.00
O1740  O     0.85938   0.83000   0.26500   0.00000  Uiso   1.00
O1741  O     0.77285   0.77475   0.41500   0.00000  Uiso   1.00
O1742  O     0.85390   0.83750   0.34075   0.00000  Uiso   1.00
C1743  C     0.77663   0.79475   0.46000   0.00000  Uiso   1.00
C1744  C     0.84840   0.83125   0.29125   0.00000  Uiso   1.00
C1745  C     0.80005   0.81925   0.28225   0.00000  Uiso   1.00
C1746  C     0.82410   0.81450   0.46750   0.00000  Uiso   1.00
C1747  C     0.81860   0.82500   0.30475   0.00000  Uiso   1.00
C1748  C     0.80615   0.80025   0.44700   0.00000  Uiso   1.00
C1749  C     0.79545   0.80275   0.48050   0.00000  Uiso   1.00
C1750  C     0.83010   0.81800   0.27250   0.00000  Uiso   1.00
Al1751 Al    0.87470   0.87500   0.49975   0.00000  Uiso   1.00
O1752  O     0.87500   0.84750   0.43600   0.00000  Uiso   1.00
O1753  O     0.89095   0.91825   0.48725   0.00000  Uiso   1.00
O1754  O     0.98438   0.95500   0.26500   0.00000  Uiso   1.00
O1755  O     0.89785   0.89975   0.41500   0.00000  Uiso   1.00
O1756  O     0.97890   0.96250   0.34075   0.00000  Uiso   1.00
C1757  C     0.90163   0.91975   0.46000   0.00000  Uiso   1.00
C1758  C     0.97340   0.95625   0.29125   0.00000  Uiso   1.00
C1759  C     0.92505   0.94425   0.28225   0.00000  Uiso   1.00
C1760  C     0.94910   0.93950   0.46750   0.00000  Uiso   1.00
C1761  C     0.94360   0.95000   0.30475   0.00000  Uiso   1.00
C1762  C     0.93115   0.92525   0.44700   0.00000  Uiso   1.00
C1763  C     0.92045   0.92775   0.48050   0.00000  Uiso   1.00
C1764  C     0.95510   0.94300   0.27250   0.00000  Uiso   1.00
Al1765 Al    0.99970   0.75000   0.37475   0.00000  Uiso   1.00
O1766  O     0.75000   0.77750   0.31100   0.00000  Uiso   1.00
O1767  O     0.76595   0.95675   0.36225   0.00000  Uiso   1.00
O1768  O     0.85938   0.92000   0.39000   0.00000  Uiso   1.00
O1769  O     0.77285   0.97525   0.29000   0.00000  Uiso   1.00
O1770  O     0.85390   0.91250   0.46575   0.00000  Uiso   1.00
C1771  C     0.77663   0.95525   0.33500   0.00000  Uiso   1.00
C1772  C     0.84840   0.91875   0.41625   0.00000  Uiso   1.00
C1773  C     0.80005   0.93075   0.40725   0.00000  Uiso   1.00
C1774  C     0.82410   0.93550   0.34250   0.00000  Uiso   1.00
C1775  C     0.81860   0.92500   0.42975   0.00000  Uiso   1.00
C1776  C     0.80615   0.94975   0.32200   0.00000  Uiso   1.00
C1777  C     0.79545   0.94725   0.35550   0.00000  Uiso   1.00
C1778  C     0.83010   0.93200   0.39750   0.00000  Uiso   1.00
Al1779 Al    0.87470   0.87500   0.37475   0.00000  Uiso   1.00
O1780  O     0.87500   0.90250   0.31100   0.00000  Uiso   1.00
O1781  O     0.89095   0.83175   0.36225   0.00000  Uiso   1.00
O1782  O     0.98438   0.79500   0.39000   0.00000  Uiso   1.00
O1783  O     0.89785   0.85025   0.29000   0.00000  Uiso   1.00
O1784  O     0.97890   0.78750   0.46575   0.00000  Uiso   1.00
C1785  C     0.90163   0.83025   0.33500   0.00000  Uiso   1.00
C1786  C     0.97340   0.79375   0.41625   0.00000  Uiso   1.00
C1787  C     0.92505   0.80575   0.40725   0.00000  Uiso   1.00
C1788  C     0.94910   0.81050   0.34250   0.00000  Uiso   1.00
C1789  C     0.94360   0.80000   0.42975   0.00000  Uiso   1.00
C1790  C     0.93115   0.82475   0.32200   0.00000  Uiso   1.00
C1791  C     0.92045   0.82225   0.35550   0.00000  Uiso   1.00
C1792  C     0.95510   0.80700   0.39750   0.00000  Uiso   1.00
Al1793 Al    0.24970   0.00000   0.74975   0.00000  Uiso   1.00
O1794  O     0.00000   0.22250   0.68600   0.00000  Uiso   1.00
O1795  O     0.01595   0.04325   0.73725   0.00000  Uiso   1.00
O1796  O     0.10938   0.08000   0.51500   0.00000  Uiso   1.00
O1797  O     0.02285   0.02475   0.66500   0.00000  Uiso   1.00
O1798  O     0.10390   0.08750   0.59075   0.00000  Uiso   1.00
C1799  C     0.02663   0.04475   0.71000   0.00000  Uiso   1.00
C1800  C     0.09840   0.08125   0.54125   0.00000  Uiso   1.00
C1801  C     0.05005   0.06925   0.53225   0.00000  Uiso   1.00
C1802  C     0.07410   0.06450   0.71750   0.00000  Uiso   1.00
C1803  C     0.06860   0.07500   0.55475   0.00000  Uiso   1.00
C1804  C     0.05615   0.05025   0.69700   0.00000  Uiso   1.00
C1805  C     0.04545   0.05275   0.73050   0.00000  Uiso   1.00
C1806  C     0.08010   0.06800   0.52250   0.00000  Uiso   1.00
Al1807 Al    0.12470   0.12500   0.74975   0.00000  Uiso   1.00
O1808  O     0.12500   0.09750   0.68600   0.00000  Uiso   1.00
O1809  O     0.14095   0.16825   0.73725   0.00000  Uiso   1.00
O1810  O     0.23438   0.20500   0.51500   0.00000  Uiso   1.00
O1811  O     0.14785   0.14975   0.66500   0.00000  Uiso   1.00
O1812  O     0.22890   0.21250   0.59075   0.00000  Uiso   1.00
C1813  C     0.15163   0.16975   0.71000   0.00000  Uiso   1.00
C1814  C     0.22340   0.20625   0.54125   0.00000  Uiso   1.00
C1815  C     0.17505   0.19425   0.53225   0.00000  Uiso   1.00
C1816  C     0.19910   0.18950   0.71750   0.00000  Uiso   1.00
C1817  C     0.19360   0.20000   0.55475   0.00000  Uiso   1.00
C1818  C     0.18115   0.17525   0.69700   0.00000  Uiso   1.00
C1819  C     0.17045   0.17775   0.73050   0.00000  Uiso   1.00
C1820  C     0.20510   0.19300   0.52250   0.00000  Uiso   1.00
Al1821 Al    0.24970   0.00000   0.62475   0.00000  Uiso   1.00
O1822  O     0.00000   0.02750   0.56100   0.00000  Uiso   1.00
O1823  O     0.01595   0.20675   0.61225   0.00000  Uiso   1.00
O1824  O     0.10938   0.17000   0.64000   0.00000  Uiso   1.00
O1825  O     0.02285   0.22525   0.54000   0.00000  Uiso   1.00
O1826  O     0.10390   0.16250   0.71575   0.00000  Uiso   1.00
C1827  C     0.02663   0.20525   0.58500   0.00000  Uiso   1.00
C1828  C     0.09840   0.16875   0.66625   0.00000  Uiso   1.00
C1829  C     0.05005   0.18075   0.65725   0.00000  Uiso   1.00
C1830  C     0.07410   0.18550   0.59250   0.00000  Uiso   1.00
C1831  C     0.06860   0.17500   0.67975   0.00000  Uiso   1.00
C1832  C     0.05615   0.19975   0.57200   0.00000  Uiso   1.00
C1833  C     0.04545   0.19725   0.60550   0.00000  Uiso   1.00
C1834  C     0.08010   0.18200   0.64750   0.00000  Uiso   1.00
Al1835 Al    0.12470   0.12500   0.62475   0.00000  Uiso   1.00
O1836  O     0.12500   0.15250   0.56100   0.00000  Uiso   1.00
O1837  O     0.14095   0.08175   0.61225   0.00000  Uiso   1.00
O1838  O     0.23438   0.04500   0.64000   0.00000  Uiso   1.00
O1839  O     0.14785   0.10025   0.54000   0.00000  Uiso   1.00
O1840  O     0.22890   0.03750   0.71575   0.00000  Uiso   1.00
C1841  C     0.15163   0.08025   0.58500   0.00000  Uiso   1.00
C1842  C     0.22340   0.04375   0.66625   0.00000  Uiso   1.00
C1843  C     0.17505   0.05575   0.65725   0.00000  Uiso   1.00
C1844  C     0.19910   0.06050   0.59250   0.00000  Uiso   1.00
C1845  C     0.19360   0.05000   0.67975   0.00000  Uiso   1.00
C1846  C     0.18115   0.07475   0.57200   0.00000  Uiso   1.00
C1847  C     0.17045   0.07225   0.60550   0.00000  Uiso   1.00
C1848  C     0.20510   0.05700   0.64750   0.00000  Uiso   1.00
Al1849 Al    0.49970   0.00000   0.74975   0.00000  Uiso   1.00
O1850  O     0.25000   0.22250   0.68600   0.00000  Uiso   1.00
O1851  O     0.26595   0.04325   0.73725   0.00000  Uiso   1.00
O1852  O     0.35938   0.08000   0.51500   0.00000  Uiso   1.00
O1853  O     0.27285   0.02475   0.66500   0.00000  Uiso   1.00
O1854  O     0.35390   0.08750   0.59075   0.00000  Uiso   1.00
C1855  C     0.27663   0.04475   0.71000   0.00000  Uiso   1.00
C1856  C     0.34840   0.08125   0.54125   0.00000  Uiso   1.00
C1857  C     0.30005   0.06925   0.53225   0.00000  Uiso   1.00
C1858  C     0.32410   0.06450   0.71750   0.00000  Uiso   1.00
C1859  C     0.31860   0.07500   0.55475   0.00000  Uiso   1.00
C1860  C     0.30615   0.05025   0.69700   0.00000  Uiso   1.00
C1861  C     0.29545   0.05275   0.73050   0.00000  Uiso   1.00
C1862  C     0.33010   0.06800   0.52250   0.00000  Uiso   1.00
Al1863 Al    0.37470   0.12500   0.74975   0.00000  Uiso   1.00
O1864  O     0.37500   0.09750   0.68600   0.00000  Uiso   1.00
O1865  O     0.39095   0.16825   0.73725   0.00000  Uiso   1.00
O1866  O     0.48438   0.20500   0.51500   0.00000  Uiso   1.00
O1867  O     0.39785   0.14975   0.66500   0.00000  Uiso   1.00
O1868  O     0.47890   0.21250   0.59075   0.00000  Uiso   1.00
C1869  C     0.40163   0.16975   0.71000   0.00000  Uiso   1.00
C1870  C     0.47340   0.20625   0.54125   0.00000  Uiso   1.00
C1871  C     0.42505   0.19425   0.53225   0.00000  Uiso   1.00
C1872  C     0.44910   0.18950   0.71750   0.00000  Uiso   1.00
C1873  C     0.44360   0.20000   0.55475   0.00000  Uiso   1.00
C1874  C     0.43115   0.17525   0.69700   0.00000  Uiso   1.00
C1875  C     0.42045   0.17775   0.73050   0.00000  Uiso   1.00
C1876  C     0.45510   0.19300   0.52250   0.00000  Uiso   1.00
Al1877 Al    0.49970   0.00000   0.62475   0.00000  Uiso   1.00
O1878  O     0.25000   0.02750   0.56100   0.00000  Uiso   1.00
O1879  O     0.26595   0.20675   0.61225   0.00000  Uiso   1.00
O1880  O     0.35938   0.17000   0.64000   0.00000  Uiso   1.00
O1881  O     0.27285   0.22525   0.54000   0.00000  Uiso   1.00
O1882  O     0.35390   0.16250   0.71575   0.00000  Uiso   1.00
C1883  C     0.27663   0.20525   0.58500   0.00000  Uiso   1.00
C1884  C     0.34840   0.16875   0.66625   0.00000  Uiso   1.00
C1885  C     0.30005   0.18075   0.65725   0.00000  Uiso   1.00
C1886  C     0.32410   0.18550   0.59250   0.00000  Uiso   1.00
C1887  C     0.31860   0.17500   0.67975   0.00000  Uiso   1.00
C1888  C     0.30615   0.19975   0.57200   0.00000  Uiso   1.00
C1889  C     0.29545   0.19725   0.60550   0.00000  Uiso   1.00
C1890  C     0.33010   0.18200   0.64750   0.00000  Uiso   1.00
Al1891 Al    0.37470   0.12500   0.62475   0.00000  Uiso   1.00
O1892  O     0.37500   0.15250   0.56100   0.00000  Uiso   1.00
O1893  O     0.39095   0.08175   0.61225   0.00000  Uiso   1.00
O1894  O     0.48438   0.04500   0.64000   0.00000  Uiso   1.00
O1895  O     0.39785   0.10025   0.54000   0.00000  Uiso   1.00
O1896  O     0.47890   0.03750   0.71575   0.00000  Uiso   1.00
C1897  C     0.40163   0.08025   0.58500   0.00000  Uiso   1.00
C1898  C     0.47340   0.04375   0.66625   0.00000  Uiso   1.00
C1899  C     0.42505   0.05575   0.65725   0.00000  Uiso   1.00
C1900  C     0.44910   0.06050   0.59250   0.00000  Uiso   1.00
C1901  C     0.44360   0.05000   0.67975   0.00000  Uiso   1.00
C1902  C     0.43115   0.07475   0.57200   0.00000  Uiso   1.00
C1903  C     0.42045   0.07225   0.60550   0.00000  Uiso   1.00
C1904  C     0.45510   0.05700   0.64750   0.00000  Uiso   1.00
Al1905 Al    0.74970   0.00000   0.74975   0.00000  Uiso   1.00
O1906  O     0.50000   0.22250   0.68600   0.00000  Uiso   1.00
O1907  O     0.51595   0.04325   0.73725   0.00000  Uiso   1.00
O1908  O     0.60938   0.08000   0.51500   0.00000  Uiso   1.00
O1909  O     0.52285   0.02475   0.66500   0.00000  Uiso   1.00
O1910  O     0.60390   0.08750   0.59075   0.00000  Uiso   1.00
C1911  C     0.52663   0.04475   0.71000   0.00000  Uiso   1.00
C1912  C     0.59840   0.08125   0.54125   0.00000  Uiso   1.00
C1913  C     0.55005   0.06925   0.53225   0.00000  Uiso   1.00
C1914  C     0.57410   0.06450   0.71750   0.00000  Uiso   1.00
C1915  C     0.56860   0.07500   0.55475   0.00000  Uiso   1.00
C1916  C     0.55615   0.05025   0.69700   0.00000  Uiso   1.00
C1917  C     0.54545   0.05275   0.73050   0.00000  Uiso   1.00
C1918  C     0.58010   0.06800   0.52250   0.00000  Uiso   1.00
Al1919 Al    0.62470   0.12500   0.74975   0.00000  Uiso   1.00
O1920  O     0.62500   0.09750   0.68600   0.00000  Uiso   1.00
O1921  O     0.64095   0.16825   0.73725   0.00000  Uiso   1.00
O1922  O     0.73438   0.20500   0.51500   0.00000  Uiso   1.00
O1923  O     0.64785   0.14975   0.66500   0.00000  Uiso   1.00
O1924  O     0.72890   0.21250   0.59075   0.00000  Uiso   1.00
C1925  C     0.65163   0.16975   0.71000   0.00000  Uiso   1.00
C1926  C     0.72340   0.20625   0.54125   0.00000  Uiso   1.00
C1927  C     0.67505   0.19425   0.53225   0.00000  Uiso   1.00
C1928  C     0.69910   0.18950   0.71750   0.00000  Uiso   1.00
C1929  C     0.69360   0.20000   0.55475   0.00000  Uiso   1.00
C1930  C     0.68115   0.17525   0.69700   0.00000  Uiso   1.00
C1931  C     0.67045   0.17775   0.73050   0.00000  Uiso   1.00
C1932  C     0.70510   0.19300   0.52250   0.00000  Uiso   1.00
Al1933 Al    0.74970   0.00000   0.62475   0.00000  Uiso   1.00
O1934  O     0.50000   0.02750   0.56100   0.00000  Uiso   1.00
O1935  O     0.51595   0.20675   0.61225   0.00000  Uiso   1.00
O1936  O     0.60938   0.17000   0.64000   0.00000  Uiso   1.00
O1937  O     0.52285   0.22525   0.54000   0.00000  Uiso   1.00
O1938  O     0.60390   0.16250   0.71575   0.00000  Uiso   1.00
C1939  C     0.52663   0.20525   0.58500   0.00000  Uiso   1.00
C1940  C     0.59840   0.16875   0.66625   0.00000  Uiso   1.00
C1941  C     0.55005   0.18075   0.65725   0.00000  Uiso   1.00
C1942  C     0.57410   0.18550   0.59250   0.00000  Uiso   1.00
C1943  C     0.56860   0.17500   0.67975   0.00000  Uiso   1.00
C1944  C     0.55615   0.19975   0.57200   0.00000  Uiso   1.00
C1945  C     0.54545   0.19725   0.60550   0.00000  Uiso   1.00
C1946  C     0.58010   0.18200   0.64750   0.00000  Uiso   1.00
Al1947 Al    0.62470   0.12500   0.62475   0.00000  Uiso   1.00
O1948  O     0.62500   0.15250   0.56100   0.00000  Uiso   1.00
O1949  O     0.64095   0.08175   0.61225   0.00000  Uiso   1.00
O1950  O     0.73438   0.04500   0.64000   0.00000  Uiso   1.00
O1951  O     0.64785   0.10025   0.54000   0.00000  Uiso   1.00
O1952  O     0.72890   0.03750   0.71575   0.00000  Uiso   1.00
C1953  C     0.65163   0.08025   0.58500   0.00000  Uiso   1.00
C1954  C     0.72340   0.04375   0.66625   0.00000  Uiso   1.00
C1955  C     0.67505   0.05575   0.65725   0.00000  Uiso   1.00
C1956  C     0.69910   0.06050   0.59250   0.00000  Uiso   1.00
C1957  C     0.69360   0.05000   0.67975   0.00000  Uiso   1.00
C1958  C     0.68115   0.07475   0.57200   0.00000  Uiso   1.00
C1959  C     0.67045   0.07225   0.60550   0.00000  Uiso   1.00
C1960  C     0.70510   0.05700   0.64750   0.00000  Uiso   1.00
Al1961 Al    0.99970   0.00000   0.74975   0.00000  Uiso   1.00
O1962  O     0.75000   0.22250   0.68600   0.00000  Uiso   1.00
O1963  O     0.76595   0.04325   0.73725   0.00000  Uiso   1.00
O1964  O     0.85938   0.08000   0.51500   0.00000  Uiso   1.00
O1965  O     0.77285   0.02475   0.66500   0.00000  Uiso   1.00
O1966  O     0.85390   0.08750   0.59075   0.00000  Uiso   1.00
C1967  C     0.77663   0.04475   0.71000   0.00000  Uiso   1.00
C1968  C     0.84840   0.08125   0.54125   0.00000  Uiso   1.00
C1969  C     0.80005   0.06925   0.53225   0.00000  Uiso   1.00
C1970  C     0.82410   0.06450   0.71750   0.00000  Uiso   1.00
C1971  C     0.81860   0.07500   0.55475   0.00000  Uiso   1.00
C1972  C     0.80615   0.05025   0.69700   0.00000  Uiso   1.00
C1973  C     0.79545   0.05275   0.73050   0.00000  Uiso   1.00
C1974  C     0.83010   0.06800   0.52250   0.00000  Uiso   1.00
Al1975 Al    0.87470   0.12500   0.74975   0.00000  Uiso   1.00
O1976  O     0.87500   0.09750   0.68600   0.00000  Uiso   1.00
O1977  O     0.89095   0.16825   0.73725   0.00000  Uiso   1.00
O1978  O     0.98438   0.20500   0.51500   0.00000  Uiso   1.00
O1979  O     0.89785   0.14975   0.66500   0.00000  Uiso   1.00
O1980  O     0.97890   0.21250   0.59075   0.00000  Uiso   1.00
C1981  C     0.90163   0.16975   0.71000   0.00000  Uiso   1.00
C1982  C     0.97340   0.20625   0.54125   0.00000  Uiso   1.00
C1983  C     0.92505   0.19425   0.53225   0.00000  Uiso   1.00
C1984  C     0.94910   0.18950   0.71750   0.00000  Uiso   1.00
C1985  C     0.94360   0.20000   0.55475   0.00000  Uiso   1.00
C1986  C     0.93115   0.17525   0.69700   0.00000  Uiso   1.00
C1987  C     0.92045   0.17775   0.73050   0.00000  Uiso   1.00
C1988  C     0.95510   0.19300   0.52250   0.00000  Uiso   1.00
Al1989 Al    0.99970   0.00000   0.62475   0.00000  Uiso   1.00
O1990  O     0.75000   0.02750   0.56100   0.00000  Uiso   1.00
O1991  O     0.76595   0.20675   0.61225   0.00000  Uiso   1.00
O1992  O     0.85938   0.17000   0.64000   0.00000  Uiso   1.00
O1993  O     0.77285   0.22525   0.54000   0.00000  Uiso   1.00
O1994  O     0.85390   0.16250   0.71575   0.00000  Uiso   1.00
C1995  C     0.77663   0.20525   0.58500   0.00000  Uiso   1.00
C1996  C     0.84840   0.16875   0.66625   0.00000  Uiso   1.00
C1997  C     0.80005   0.18075   0.65725   0.00000  Uiso   1.00
C1998  C     0.82410   0.18550   0.59250   0.00000  Uiso   1.00
C1999  C     0.81860   0.17500   0.67975   0.00000  Uiso   1.00
C2000  C     0.80615   0.19975   0.57200   0.00000  Uiso   1.00
C2001  C     0.79545   0.19725   0.60550   0.00000  Uiso   1.00
C2002  C     0.83010   0.18200   0.64750   0.00000  Uiso   1.00
Al2003 Al    0.87470   0.12500   0.62475   0.00000  Uiso   1.00
O2004  O     0.87500   0.15250   0.56100   0.00000  Uiso   1.00
O2005  O     0.89095   0.08175   0.61225   0.00000  Uiso   1.00
O2006  O     0.98438   0.04500   0.64000   0.00000  Uiso   1.00
O2007  O     0.89785   0.10025   0.54000   0.00000  Uiso   1.00
O2008  O     0.97890   0.03750   0.71575   0.00000  Uiso   1.00
C2009  C     0.90163   0.08025   0.58500   0.00000  Uiso   1.00
C2010  C     0.97340   0.04375   0.66625   0.00000  Uiso   1.00
C2011  C     0.92505   0.05575   0.65725   0.00000  Uiso   1.00
C2012  C     0.94910   0.06050   0.59250   0.00000  Uiso   1.00
C2013  C     0.94360   0.05000   0.67975   0.00000  Uiso   1.00
C2014  C     0.93115   0.07475   0.57200   0.00000  Uiso   1.00
C2015  C     0.92045   0.07225   0.60550   0.00000  Uiso   1.00
C2016  C     0.95510   0.05700   0.64750   0.00000  Uiso   1.00
Al2017 Al    0.24970   0.25000   0.74975   0.00000  Uiso   1.00
O2018  O     0.00000   0.47250   0.68600   0.00000  Uiso   1.00
O2019  O     0.01595   0.29325   0.73725   0.00000  Uiso   1.00
O2020  O     0.10938   0.33000   0.51500   0.00000  Uiso   1.00
O2021  O     0.02285   0.27475   0.66500   0.00000  Uiso   1.00
O2022  O     0.10390   0.33750   0.59075   0.00000  Uiso   1.00
C2023  C     0.02663   0.29475   0.71000   0.00000  Uiso   1.00
C2024  C     0.09840   0.33125   0.54125   0.00000  Uiso   1.00
C2025  C     0.05005   0.31925   0.53225   0.00000  Uiso   1.00
C2026  C     0.07410   0.31450   0.71750   0.00000  Uiso   1.00
C2027  C     0.06860   0.32500   0.55475   0.00000  Uiso   1.00
C2028  C     0.05615   0.30025   0.69700   0.00000  Uiso   1.00
C2029  C     0.04545   0.30275   0.73050   0.00000  Uiso   1.00
C2030  C     0.08010   0.31800   0.52250   0.00000  Uiso   1.00
Al2031 Al    0.12470   0.37500   0.74975   0.00000  Uiso   1.00
O2032  O     0.12500   0.34750   0.68600   0.00000  Uiso   1.00
O2033  O     0.14095   0.41825   0.73725   0.00000  Uiso   1.00
O2034  O     0.23438   0.45500   0.51500   0.00000  Uiso   1.00
O2035  O     0.14785   0.39975   0.66500   0.00000  Uiso   1.00
O2036  O     0.22890   0.46250   0.59075   0.00000  Uiso   1.00
C2037  C     0.15163   0.41975   0.71000   0.00000  Uiso   1.00
C2038  C     0.22340   0.45625   0.54125   0.00000  Uiso   1.00
C2039  C     0.17505   0.44425   0.53225   0.00000  Uiso   1.00
C2040  C     0.19910   0.43950   0.71750   0.00000  Uiso   1.00
C2041  C     0.19360   0.45000   0.55475   0.00000  Uiso   1.00
C2042  C     0.18115   0.42525   0.69700   0.00000  Uiso   1.00
C2043  C     0.17045   0.42775   0.73050   0.00000  Uiso   1.00
C2044  C     0.20510   0.44300   0.52250   0.00000  Uiso   1.00
Al2045 Al    0.24970   0.25000   0.62475   0.00000  Uiso   1.00
O2046  O     0.00000   0.27750   0.56100   0.00000  Uiso   1.00
O2047  O     0.01595   0.45675   0.61225   0.00000  Uiso   1.00
O2048  O     0.10938   0.42000   0.64000   0.00000  Uiso   1.00
O2049  O     0.02285   0.47525   0.54000   0.00000  Uiso   1.00
O2050  O     0.10390   0.41250   0.71575   0.00000  Uiso   1.00
C2051  C     0.02663   0.45525   0.58500   0.00000  Uiso   1.00
C2052  C     0.09840   0.41875   0.66625   0.00000  Uiso   1.00
C2053  C     0.05005   0.43075   0.65725   0.00000  Uiso   1.00
C2054  C     0.07410   0.43550   0.59250   0.00000  Uiso   1.00
C2055  C     0.06860   0.42500   0.67975   0.00000  Uiso   1.00
C2056  C     0.05615   0.44975   0.57200   0.00000  Uiso   1.00
C2057  C     0.04545   0.44725   0.60550   0.00000  Uiso   1.00
C2058  C     0.08010   0.43200   0.64750   0.00000  Uiso   1.00
Al2059 Al    0.12470   0.37500   0.62475   0.00000  Uiso   1.00
O2060  O     0.12500   0.40250   0.56100   0.00000  Uiso   1.00
O2061  O     0.14095   0.33175   0.61225   0.00000  Uiso   1.00
O2062  O     0.23438   0.29500   0.64000   0.00000  Uiso   1.00
O2063  O     0.14785   0.35025   0.54000   0.00000  Uiso   1.00
O2064  O     0.22890   0.28750   0.71575   0.00000  Uiso   1.00
C2065  C     0.15163   0.33025   0.58500   0.00000  Uiso   1.00
C2066  C     0.22340   0.29375   0.66625   0.00000  Uiso   1.00
C2067  C     0.17505   0.30575   0.65725   0.00000  Uiso   1.00
C2068  C     0.19910   0.31050   0.59250   0.00000  Uiso   1.00
C2069  C     0.19360   0.30000   0.67975   0.00000  Uiso   1.00
C2070  C     0.18115   0.32475   0.57200   0.00000  Uiso   1.00
C2071  C     0.17045   0.32225   0.60550   0.00000  Uiso   1.00
C2072  C     0.20510   0.30700   0.64750   0.00000  Uiso   1.00
Al2073 Al    0.49970   0.25000   0.74975   0.00000  Uiso   1.00
O2074  O     0.25000   0.47250   0.68600   0.00000  Uiso   1.00
O2075  O     0.26595   0.29325   0.73725   0.00000  Uiso   1.00
O2076  O     0.35938   0.33000   0.51500   0.00000  Uiso   1.00
O2077  O     0.27285   0.27475   0.66500   0.00000  Uiso   1.00
O2078  O     0.35390   0.33750   0.59075   0.00000  Uiso   1.00
C2079  C     0.27663   0.29475   0.71000   0.00000  Uiso   1.00
C2080  C     0.34840   0.33125   0.54125   0.00000  Uiso   1.00
C2081  C     0.30005   0.31925   0.53225   0.00000  Uiso   1.00
C2082  C     0.32410   0.31450   0.71750   0.00000  Uiso   1.00
C2083  C     0.31860   0.32500   0.55475   0.00000  Uiso   1.00
C2084  C     0.30615   0.30025   0.69700   0.00000  Uiso   1.00
C2085  C     0.29545   0.30275   0.73050   0.00000  Uiso   1.00
C2086  C     0.33010   0.31800   0.52250   0.00000  Uiso   1.00
Al2087 Al    0.37470   0.37500   0.74975   0.00000  Uiso   1.00
O2088  O     0.37500   0.34750   0.68600   0.00000  Uiso   1.00
O2089  O     0.39095   0.41825   0.73725   0.00000  Uiso   1.00
O2090  O     0.48438   0.45500   0.51500   0.00000  Uiso   1.00
O2091  O     0.39785   0.39975   0.66500   0.00000  Uiso   1.00
O2092  O     0.47890   0.46250   0.59075   0.00000  Uiso   1.00
C2093  C     0.40163   0.41975   0.71000   0.00000  Uiso   1.00
C2094  C     0.47340   0.45625   0.54125   0.00000  Uiso   1.00
C2095  C     0.42505   0.44425   0.53225   0.00000  Uiso   1.00
C2096  C     0.44910   0.43950   0.71750   0.00000  Uiso   1.00
C2097  C     0.44360   0.45000   0.55475   0.00000  Uiso   1.00
C2098  C     0.43115   0.42525   0.69700   0.00000  Uiso   1.00
C2099  C     0.42045   0.42775   0.73050   0.00000  Uiso   1.00
C2100  C     0.45510   0.44300   0.52250   0.00000  Uiso   1.00
Al2101 Al    0.49970   0.25000   0.62475   0.00000  Uiso   1.00
O2102  O     0.25000   0.27750   0.56100   0.00000  Uiso   1.00
O2103  O     0.26595   0.45675   0.61225   0.00000  Uiso   1.00
O2104  O     0.35938   0.42000   0.64000   0.00000  Uiso   1.00
O2105  O     0.27285   0.47525   0.54000   0.00000  Uiso   1.00
O2106  O     0.35390   0.41250   0.71575   0.00000  Uiso   1.00
C2107  C     0.27663   0.45525   0.58500   0.00000  Uiso   1.00
C2108  C     0.34840   0.41875   0.66625   0.00000  Uiso   1.00
C2109  C     0.30005   0.43075   0.65725   0.00000  Uiso   1.00
C2110  C     0.32410   0.43550   0.59250   0.00000  Uiso   1.00
C2111  C     0.31860   0.42500   0.67975   0.00000  Uiso   1.00
C2112  C     0.30615   0.44975   0.57200   0.00000  Uiso   1.00
C2113  C     0.29545   0.44725   0.60550   0.00000  Uiso   1.00
C2114  C     0.33010   0.43200   0.64750   0.00000  Uiso   1.00
Al2115 Al    0.37470   0.37500   0.62475   0.00000  Uiso   1.00
O2116  O     0.37500   0.40250   0.56100   0.00000  Uiso   1.00
O2117  O     0.39095   0.33175   0.61225   0.00000  Uiso   1.00
O2118  O     0.48438   0.29500   0.64000   0.00000  Uiso   1.00
O2119  O     0.39785   0.35025   0.54000   0.00000  Uiso   1.00
O2120  O     0.47890   0.28750   0.71575   0.00000  Uiso   1.00
C2121  C     0.40163   0.33025   0.58500   0.00000  Uiso   1.00
C2122  C     0.47340   0.29375   0.66625   0.00000  Uiso   1.00
C2123  C     0.42505   0.30575   0.65725   0.00000  Uiso   1.00
C2124  C     0.44910   0.31050   0.59250   0.00000  Uiso   1.00
C2125  C     0.44360   0.30000   0.67975   0.00000  Uiso   1.00
C2126  C     0.43115   0.32475   0.57200   0.00000  Uiso   1.00
C2127  C     0.42045   0.32225   0.60550   0.00000  Uiso   1.00
C2128  C     0.45510   0.30700   0.64750   0.00000  Uiso   1.00
Al2129 Al    0.74970   0.25000   0.74975   0.00000  Uiso   1.00
O2130  O     0.50000   0.47250   0.68600   0.00000  Uiso   1.00
O2131  O     0.51595   0.29325   0.73725   0.00000  Uiso   1.00
O2132  O     0.60938   0.33000   0.51500   0.00000  Uiso   1.00
O2133  O     0.52285   0.27475   0.66500   0.00000  Uiso   1.00
O2134  O     0.60390   0.33750   0.59075   0.00000  Uiso   1.00
C2135  C     0.52663   0.29475   0.71000   0.00000  Uiso   1.00
C2136  C     0.59840   0.33125   0.54125   0.00000  Uiso   1.00
C2137  C     0.55005   0.31925   0.53225   0.00000  Uiso   1.00
C2138  C     0.57410   0.31450   0.71750   0.00000  Uiso   1.00
C2139  C     0.56860   0.32500   0.55475   0.00000  Uiso   1.00
C2140  C     0.55615   0.30025   0.69700   0.00000  Uiso   1.00
C2141  C     0.54545   0.30275   0.73050   0.00000  Uiso   1.00
C2142  C     0.58010   0.31800   0.52250   0.00000  Uiso   1.00
Al2143 Al    0.62470   0.37500   0.74975   0.00000  Uiso   1.00
O2144  O     0.62500   0.34750   0.68600   0.00000  Uiso   1.00
O2145  O     0.64095   0.41825   0.73725   0.00000  Uiso   1.00
O2146  O     0.73438   0.45500   0.51500   0.00000  Uiso   1.00
O2147  O     0.64785   0.39975   0.66500   0.00000  Uiso   1.00
O2148  O     0.72890   0.46250   0.59075   0.00000  Uiso   1.00
C2149  C     0.65163   0.41975   0.71000   0.00000  Uiso   1.00
C2150  C     0.72340   0.45625   0.54125   0.00000  Uiso   1.00
C2151  C     0.67505   0.44425   0.53225   0.00000  Uiso   1.00
C2152  C     0.69910   0.43950   0.71750   0.00000  Uiso   1.00
C2153  C     0.69360   0.45000   0.55475   0.00000  Uiso   1.00
C2154  C     0.68115   0.42525   0.69700   0.00000  Uiso   1.00
C2155  C     0.67045   0.42775   0.73050   0.00000  Uiso   1.00
C2156  C     0.70510   0.44300   0.52250   0.00000  Uiso   1.00
Al2157 Al    0.74970   0.25000   0.62475   0.00000  Uiso   1.00
O2158  O     0.50000   0.27750   0.56100   0.00000  Uiso   1.00
O2159  O     0.51595   0.45675   0.61225   0.00000  Uiso   1.00
O2160  O     0.60938   0.42000   0.64000   0.00000  Uiso   1.00
O2161  O     0.52285   0.47525   0.54000   0.00000  Uiso   1.00
O2162  O     0.60390   0.41250   0.71575   0.00000  Uiso   1.00
C2163  C     0.52663   0.45525   0.58500   0.00000  Uiso   1.00
C2164  C     0.59840   0.41875   0.66625   0.00000  Uiso   1.00
C2165  C     0.55005   0.43075   0.65725   0.00000  Uiso   1.00
C2166  C     0.57410   0.43550   0.59250   0.00000  Uiso   1.00
C2167  C     0.56860   0.42500   0.67975   0.00000  Uiso   1.00
C2168  C     0.55615   0.44975   0.57200   0.00000  Uiso   1.00
C2169  C     0.54545   0.44725   0.60550   0.00000  Uiso   1.00
C2170  C     0.58010   0.43200   0.64750   0.00000  Uiso   1.00
Al2171 Al    0.62470   0.37500   0.62475   0.00000  Uiso   1.00
O2172  O     0.62500   0.40250   0.56100   0.00000  Uiso   1.00
O2173  O     0.64095   0.33175   0.61225   0.00000  Uiso   1.00
O2174  O     0.73438   0.29500   0.64000   0.00000  Uiso   1.00
O2175  O     0.64785   0.35025   0.54000   0.00000  Uiso   1.00
O2176  O     0.72890   0.28750   0.71575   0.00000  Uiso   1.00
C2177  C     0.65163   0.33025   0.58500   0.00000  Uiso   1.00
C2178  C     0.72340   0.29375   0.66625   0.00000  Uiso   1.00
C2179  C     0.67505   0.30575   0.65725   0.00000  Uiso   1.00
C2180  C     0.69910   0.31050   0.59250   0.00000  Uiso   1.00
C2181  C     0.69360   0.30000   0.67975   0.00000  Uiso   1.00
C2182  C     0.68115   0.32475   0.57200   0.00000  Uiso   1.00
C2183  C     0.67045   0.32225   0.60550   0.00000  Uiso   1.00
C2184  C     0.70510   0.30700   0.64750   0.00000  Uiso   1.00
Al2185 Al    0.99970   0.25000   0.74975   0.00000  Uiso   1.00
O2186  O     0.75000   0.47250   0.68600   0.00000  Uiso   1.00
O2187  O     0.76595   0.29325   0.73725   0.00000  Uiso   1.00
O2188  O     0.85938   0.33000   0.51500   0.00000  Uiso   1.00
O2189  O     0.77285   0.27475   0.66500   0.00000  Uiso   1.00
O2190  O     0.85390   0.33750   0.59075   0.00000  Uiso   1.00
C2191  C     0.77663   0.29475   0.71000   0.00000  Uiso   1.00
C2192  C     0.84840   0.33125   0.54125   0.00000  Uiso   1.00
C2193  C     0.80005   0.31925   0.53225   0.00000  Uiso   1.00
C2194  C     0.82410   0.31450   0.71750   0.00000  Uiso   1.00
C2195  C     0.81860   0.32500   0.55475   0.00000  Uiso   1.00
C2196  C     0.80615   0.30025   0.69700   0.00000  Uiso   1.00
C2197  C     0.79545   0.30275   0.73050   0.00000  Uiso   1.00
C2198  C     0.83010   0.31800   0.52250   0.00000  Uiso   1.00
Al2199 Al    0.87470   0.37500   0.74975   0.00000  Uiso   1.00
O2200  O     0.87500   0.34750   0.68600   0.00000  Uiso   1.00
O2201  O     0.89095   0.41825   0.73725   0.00000  Uiso   1.00
O2202  O     0.98438   0.45500   0.51500   0.00000  Uiso   1.00
O2203  O     0.89785   0.39975   0.66500   0.00000  Uiso   1.00
O2204  O     0.97890   0.46250   0.59075   0.00000  Uiso   1.00
C2205  C     0.90163   0.41975   0.71000   0.00000  Uiso   1.00
C2206  C     0.97340   0.45625   0.54125   0.00000  Uiso   1.00
C2207  C     0.92505   0.44425   0.53225   0.00000  Uiso   1.00
C2208  C     0.94910   0.43950   0.71750   0.00000  Uiso   1.00
C2209  C     0.94360   0.45000   0.55475   0.00000  Uiso   1.00
C2210  C     0.93115   0.42525   0.69700   0.00000  Uiso   1.00
C2211  C     0.92045   0.42775   0.73050   0.00000  Uiso   1.00
C2212  C     0.95510   0.44300   0.52250   0.00000  Uiso   1.00
Al2213 Al    0.99970   0.25000   0.62475   0.00000  Uiso   1.00
O2214  O     0.75000   0.27750   0.56100   0.00000  Uiso   1.00
O2215  O     0.76595   0.45675   0.61225   0.00000  Uiso   1.00
O2216  O     0.85938   0.42000   0.64000   0.00000  Uiso   1.00
O2217  O     0.77285   0.47525   0.54000   0.00000  Uiso   1.00
O2218  O     0.85390   0.41250   0.71575   0.00000  Uiso   1.00
C2219  C     0.77663   0.45525   0.58500   0.00000  Uiso   1.00
C2220  C     0.84840   0.41875   0.66625   0.00000  Uiso   1.00
C2221  C     0.80005   0.43075   0.65725   0.00000  Uiso   1.00
C2222  C     0.82410   0.43550   0.59250   0.00000  Uiso   1.00
C2223  C     0.81860   0.42500   0.67975   0.00000  Uiso   1.00
C2224  C     0.80615   0.44975   0.57200   0.00000  Uiso   1.00
C2225  C     0.79545   0.44725   0.60550   0.00000  Uiso   1.00
C2226  C     0.83010   0.43200   0.64750   0.00000  Uiso   1.00
Al2227 Al    0.87470   0.37500   0.62475   0.00000  Uiso   1.00
O2228  O     0.87500   0.40250   0.56100   0.00000  Uiso   1.00
O2229  O     0.89095   0.33175   0.61225   0.00000  Uiso   1.00
O2230  O     0.98438   0.29500   0.64000   0.00000  Uiso   1.00
O2231  O     0.89785   0.35025   0.54000   0.00000  Uiso   1.00
O2232  O     0.97890   0.28750   0.71575   0.00000  Uiso   1.00
C2233  C     0.90163   0.33025   0.58500   0.00000  Uiso   1.00
C2234  C     0.97340   0.29375   0.66625   0.00000  Uiso   1.00
C2235  C     0.92505   0.30575   0.65725   0.00000  Uiso   1.00
C2236  C     0.94910   0.31050   0.59250   0.00000  Uiso   1.00
C2237  C     0.94360   0.30000   0.67975   0.00000  Uiso   1.00
C2238  C     0.93115   0.32475   0.57200   0.00000  Uiso   1.00
C2239  C     0.92045   0.32225   0.60550   0.00000  Uiso   1.00
C2240  C     0.95510   0.30700   0.64750   0.00000  Uiso   1.00
Al2241 Al    0.24970   0.50000   0.74975   0.00000  Uiso   1.00
O2242  O     0.00000   0.72250   0.68600   0.00000  Uiso   1.00
O2243  O     0.01595   0.54325   0.73725   0.00000  Uiso   1.00
O2244  O     0.10938   0.58000   0.51500   0.00000  Uiso   1.00
O2245  O     0.02285   0.52475   0.66500   0.00000  Uiso   1.00
O2246  O     0.10390   0.58750   0.59075   0.00000  Uiso   1.00
C2247  C     0.02663   0.54475   0.71000   0.00000  Uiso   1.00
C2248  C     0.09840   0.58125   0.54125   0.00000  Uiso   1.00
C2249  C     0.05005   0.56925   0.53225   0.00000  Uiso   1.00
C2250  C     0.07410   0.56450   0.71750   0.00000  Uiso   1.00
C2251  C     0.06860   0.57500   0.55475   0.00000  Uiso   1.00
C2252  C     0.05615   0.55025   0.69700   0.00000  Uiso   1.00
C2253  C     0.04545   0.55275   0.73050   0.00000  Uiso   1.00
C2254  C     0.08010   0.56800   0.52250   0.00000  Uiso   1.00
Al2255 Al    0.12470   0.62500   0.74975   0.00000  Uiso   1.00
O2256  O     0.12500   0.59750   0.68600   0.00000  Uiso   1.00
O2257  O     0.14095   0.66825   0.73725   0.00000  Uiso   1.00
O2258  O     0.23438   0.70500   0.51500   0.00000  Uiso   1.00
O2259  O     0.14785   0.64975   0.66500   0.00000  Uiso   1.00
O2260  O     0.22890   0.71250   0.59075   0.00000  Uiso   1.00
C2261  C     0.15163   0.66975   0.71000   0.00000  Uiso   1.00
C2262  C     0.22340   0.70625   0.54125   0.00000  Uiso   1.00
C2263  C     0.17505   0.69425   0.53225   0.00000  Uiso   1.00
C2264  C     0.19910   0.68950   0.71750   0.00000  Uiso   1.00
C2265  C     0.19360   0.70000   0.55475   0.00000  Uiso   1.00
C2266  C     0.18115   0.67525   0.69700   0.00000  Uiso   1.00
C2267  C     0.17045   0.67775   0.73050   0.00000  Uiso   1.00
C2268  C     0.20510   0.69300   0.52250   0.00000  Uiso   1.00
Al2269 Al    0.24970   0.50000   0.62475   0.00000  Uiso   1.00
O2270  O     0.00000   0.52750   0.56100   0.00000  Uiso   1.00
O2271  O     0.01595   0.70675   0.61225   0.00000  Uiso   1.00
O2272  O     0.10938   0.67000   0.64000   0.00000  Uiso   1.00
O2273  O     0.02285   0.72525   0.54000   0.00000  Uiso   1.00
O2274  O     0.10390   0.66250   0.71575   0.00000  Uiso   1.00
C2275  C     0.02663   0.70525   0.58500   0.00000  Uiso   1.00
C2276  C     0.09840   0.66875   0.66625   0.00000  Uiso   1.00
C2277  C     0.05005   0.68075   0.65725   0.00000  Uiso   1.00
C2278  C     0.07410   0.68550   0.59250   0.00000  Uiso   1.00
C2279  C     0.06860   0.67500   0.67975   0.00000  Uiso   1.00
C2280  C     0.05615   0.69975   0.57200   0.00000  Uiso   1.00
C2281  C     0.04545   0.69725   0.60550   0.00000  Uiso   1.00
C2282  C     0.08010   0.68200   0.64750   0.00000  Uiso   1.00
Al2283 Al    0.12470   0.62500   0.62475   0.00000  Uiso   1.00
O2284  O     0.12500   0.65250   0.56100   0.00000  Uiso   1.00
O2285  O     0.14095   0.58175   0.61225   0.00000  Uiso   1.00
O2286  O     0.23438   0.54500   0.64000   0.00000  Uiso   1.00
O2287  O     0.14785   0.60025   0.54000   0.00000  Uiso   1.00
O2288  O     0.22890   0.53750   0.71575   0.00000  Uiso   1.00
C2289  C     0.15163   0.58025   0.58500   0.00000  Uiso   1.00
C2290  C     0.22340   0.54375   0.66625   0.00000  Uiso   1.00
C2291  C     0.17505   0.55575   0.65725   0.00000  Uiso   1.00
C2292  C     0.19910   0.56050   0.59250   0.00000  Uiso   1.00
C2293  C     0.19360   0.55000   0.67975   0.00000  Uiso   1.00
C2294  C     0.18115   0.57475   0.57200   0.00000  Uiso   1.00
C2295  C     0.17045   0.57225   0.60550   0.00000  Uiso   1.00
C2296  C     0.20510   0.55700   0.64750   0.00000  Uiso   1.00
Al2297 Al    0.49970   0.50000   0.74975   0.00000  Uiso   1.00
O2298  O     0.25000   0.72250   0.68600   0.00000  Uiso   1.00
O2299  O     0.26595   0.54325   0.73725   0.00000  Uiso   1.00
O2300  O     0.35938   0.58000   0.51500   0.00000  Uiso   1.00
O2301  O     0.27285   0.52475   0.66500   0.00000  Uiso   1.00
O2302  O     0.35390   0.58750   0.59075   0.00000  Uiso   1.00
C2303  C     0.27663   0.54475   0.71000   0.00000  Uiso   1.00
C2304  C     0.34840   0.58125   0.54125   0.00000  Uiso   1.00
C2305  C     0.30005   0.56925   0.53225   0.00000  Uiso   1.00
C2306  C     0.32410   0.56450   0.71750   0.00000  Uiso   1.00
C2307  C     0.31860   0.57500   0.55475   0.00000  Uiso   1.00
C2308  C     0.30615   0.55025   0.69700   0.00000  Uiso   1.00
C2309  C     0.29545   0.55275   0.73050   0.00000  Uiso   1.00
C2310  C     0.33010   0.56800   0.52250   0.00000  Uiso   1.00
Al2311 Al    0.37470   0.62500   0.74975   0.00000  Uiso   1.00
O2312  O     0.37500   0.59750   0.68600   0.00000  Uiso   1.00
O2313  O     0.39095   0.66825   0.73725   0.00000  Uiso   1.00
O2314  O     0.48438   0.70500   0.51500   0.00000  Uiso   1.00
O2315  O     0.39785   0.64975   0.66500   0.00000  Uiso   1.00
O2316  O     0.47890   0.71250   0.59075   0.00000  Uiso   1.00
C2317  C     0.40163   0.66975   0.71000   0.00000  Uiso   1.00
C2318  C     0.47340   0.70625   0.54125   0.00000  Uiso   1.00
C2319  C     0.42505   0.69425   0.53225   0.00000  Uiso   1.00
C2320  C     0.44910   0.68950   0.71750   0.00000  Uiso   1.00
C2321  C     0.44360   0.70000   0.55475   0.00000  Uiso   1.00
C2322  C     0.43115   0.67525   0.69700   0.00000  Uiso   1.00
C2323  C     0.42045   0.67775   0.73050   0.00000  Uiso   1.00
C2324  C     0.45510   0.69300   0.52250   0.00000  Uiso   1.00
Al2325 Al    0.49970   0.50000   0.62475   0.00000  Uiso   1.00
O2326  O     0.25000   0.52750   0.56100   0.00000  Uiso   1.00
O2327  O     0.26595   0.70675   0.61225   0.00000  Uiso   1.00
O2328  O     0.35938   0.67000   0.64000   0.00000  Uiso   1.00
O2329  O     0.27285   0.72525   0.54000   0.00000  Uiso   1.00
O2330  O     0.35390   0.66250   0.71575   0.00000  Uiso   1.00
C2331  C     0.27663   0.70525   0.58500   0.00000  Uiso   1.00
C2332  C     0.34840   0.66875   0.66625   0.00000  Uiso   1.00
C2333  C     0.30005   0.68075   0.65725   0.00000  Uiso   1.00
C2334  C     0.32410   0.68550   0.59250   0.00000  Uiso   1.00
C2335  C     0.31860   0.67500   0.67975   0.00000  Uiso   1.00
C2336  C     0.30615   0.69975   0.57200   0.00000  Uiso   1.00
C2337  C     0.29545   0.69725   0.60550   0.00000  Uiso   1.00
C2338  C     0.33010   0.68200   0.64750   0.00000  Uiso   1.00
Al2339 Al    0.37470   0.62500   0.62475   0.00000  Uiso   1.00
O2340  O     0.37500   0.65250   0.56100   0.00000  Uiso   1.00
O2341  O     0.39095   0.58175   0.61225   0.00000  Uiso   1.00
O2342  O     0.48438   0.54500   0.64000   0.00000  Uiso   1.00
O2343  O     0.39785   0.60025   0.54000   0.00000  Uiso   1.00
O2344  O     0.47890   0.53750   0.71575   0.00000  Uiso   1.00
C2345  C     0.40163   0.58025   0.58500   0.00000  Uiso   1.00
C2346  C     0.47340   0.54375   0.66625   0.00000  Uiso   1.00
C2347  C     0.42505   0.55575   0.65725   0.00000  Uiso   1.00
C2348  C     0.44910   0.56050   0.59250   0.00000  Uiso   1.00
C2349  C     0.44360   0.55000   0.67975   0.00000  Uiso   1.00
C2350  C     0.43115   0.57475   0.57200   0.00000  Uiso   1.00
C2351  C     0.42045   0.57225   0.60550   0.00000  Uiso   1.00
C2352  C     0.45510   0.55700   0.64750   0.00000  Uiso   1.00
Al2353 Al    0.74970   0.50000   0.74975   0.00000  Uiso   1.00
O2354  O     0.50000   0.72250   0.68600   0.00000  Uiso   1.00
O2355  O     0.51595   0.54325   0.73725   0.00000  Uiso   1.00
O2356  O     0.60938   0.58000   0.51500   0.00000  Uiso   1.00
O2357  O     0.52285   0.52475   0.66500   0.00000  Uiso   1.00
O2358  O     0.60390   0.58750   0.59075   0.00000  Uiso   1.00
C2359  C     0.52663   0.54475   0.71000   0.00000  Uiso   1.00
C2360  C     0.59840   0.58125   0.54125   0.00000  Uiso   1.00
C2361  C     0.55005   0.56925   0.53225   0.00000  Uiso   1.00
C2362  C     0.57410   0.56450   0.71750   0.00000  Uiso   1.00
C2363  C     0.56860   0.57500   0.55475   0.00000  Uiso   1.00
C2364  C     0.55615   0.55025   0.69700   0.00000  Uiso   1.00
C2365  C     0.54545   0.55275   0.73050   0.00000  Uiso   1.00
C2366  C     0.58010   0.56800   0.52250   0.00000  Uiso   1.00
Al2367 Al    0.62470   0.62500   0.74975   0.00000  Uiso   1.00
O2368  O     0.62500   0.59750   0.68600   0.00000  Uiso   1.00
O2369  O     0.64095   0.66825   0.73725   0.00000  Uiso   1.00
O2370  O     0.73438   0.70500   0.51500   0.00000  Uiso   1.00
O2371  O     0.64785   0.64975   0.66500   0.00000  Uiso   1.00
O2372  O     0.72890   0.71250   0.59075   0.00000  Uiso   1.00
C2373  C     0.65163   0.66975   0.71000   0.00000  Uiso   1.00
C2374  C     0.72340   0.70625   0.54125   0.00000  Uiso   1.00
C2375  C     0.67505   0.69425   0.53225   0.00000  Uiso   1.00
C2376  C     0.69910   0.68950   0.71750   0.00000  Uiso   1.00
C2377  C     0.69360   0.70000   0.55475   0.00000  Uiso   1.00
C2378  C     0.68115   0.67525   0.69700   0.00000  Uiso   1.00
C2379  C     0.67045   0.67775   0.73050   0.00000  Uiso   1.00
C2380  C     0.70510   0.69300   0.52250   0.00000  Uiso   1.00
Al2381 Al    0.74970   0.50000   0.62475   0.00000  Uiso   1.00
O2382  O     0.50000   0.52750   0.56100   0.00000  Uiso   1.00
O2383  O     0.51595   0.70675   0.61225   0.00000  Uiso   1.00
O2384  O     0.60938   0.67000   0.64000   0.00000  Uiso   1.00
O2385  O     0.52285   0.72525   0.54000   0.00000  Uiso   1.00
O2386  O     0.60390   0.66250   0.71575   0.00000  Uiso   1.00
C2387  C     0.52663   0.70525   0.58500   0.00000  Uiso   1.00
C2388  C     0.59840   0.66875   0.66625   0.00000  Uiso   1.00
C2389  C     0.55005   0.68075   0.65725   0.00000  Uiso   1.00
C2390  C     0.57410   0.68550   0.59250   0.00000  Uiso   1.00
C2391  C     0.56860   0.67500   0.67975   0.00000  Uiso   1.00
C2392  C     0.55615   0.69975   0.57200   0.00000  Uiso   1.00
C2393  C     0.54545   0.69725   0.60550   0.00000  Uiso   1.00
C2394  C     0.58010   0.68200   0.64750   0.00000  Uiso   1.00
Al2395 Al    0.62470   0.62500   0.62475   0.00000  Uiso   1.00
O2396  O     0.62500   0.65250   0.56100   0.00000  Uiso   1.00
O2397  O     0.64095   0.58175   0.61225   0.00000  Uiso   1.00
O2398  O     0.73438   0.54500   0.64000   0.00000  Uiso   1.00
O2399  O     0.64785   0.60025   0.54000   0.00000  Uiso   1.00
O2400  O     0.72890   0.53750   0.71575   0.00000  Uiso   1.00
C2401  C     0.65163   0.58025   0.58500   0.00000  Uiso   1.00
C2402  C     0.72340   0.54375   0.66625   0.00000  Uiso   1.00
C2403  C     0.67505   0.55575   0.65725   0.00000  Uiso   1.00
C2404  C     0.69910   0.56050   0.59250   0.00000  Uiso   1.00
C2405  C     0.69360   0.55000   0.67975   0.00000  Uiso   1.00
C2406  C     0.68115   0.57475   0.57200   0.00000  Uiso   1.00
C2407  C     0.67045   0.57225   0.60550   0.00000  Uiso   1.00
C2408  C     0.70510   0.55700   0.64750   0.00000  Uiso   1.00
Al2409 Al    0.99970   0.50000   0.74975   0.00000  Uiso   1.00
O2410  O     0.75000   0.72250   0.68600   0.00000  Uiso   1.00
O2411  O     0.76595   0.54325   0.73725   0.00000  Uiso   1.00
O2412  O     0.85938   0.58000   0.51500   0.00000  Uiso   1.00
O2413  O     0.77285   0.52475   0.66500   0.00000  Uiso   1.00
O2414  O     0.85390   0.58750   0.59075   0.00000  Uiso   1.00
C2415  C     0.77663   0.54475   0.71000   0.00000  Uiso   1.00
C2416  C     0.84840   0.58125   0.54125   0.00000  Uiso   1.00
C2417  C     0.80005   0.56925   0.53225   0.00000  Uiso   1.00
C2418  C     0.82410   0.56450   0.71750   0.00000  Uiso   1.00
C2419  C     0.81860   0.57500   0.55475   0.00000  Uiso   1.00
C2420  C     0.80615   0.55025   0.69700   0.00000  Uiso   1.00
C2421  C     0.79545   0.55275   0.73050   0.00000  Uiso   1.00
C2422  C     0.83010   0.56800   0.52250   0.00000  Uiso   1.00
Al2423 Al    0.87470   0.62500   0.74975   0.00000  Uiso   1.00
O2424  O     0.87500   0.59750   0.68600   0.00000  Uiso   1.00
O2425  O     0.89095   0.66825   0.73725   0.00000  Uiso   1.00
O2426  O     0.98438   0.70500   0.51500   0.00000  Uiso   1.00
O2427  O     0.89785   0.64975   0.66500   0.00000  Uiso   1.00
O2428  O     0.97890   0.71250   0.59075   0.00000  Uiso   1.00
C2429  C     0.90163   0.66975   0.71000   0.00000  Uiso   1.00
C2430  C     0.97340   0.70625   0.54125   0.00000  Uiso   1.00
C2431  C     0.92505   0.69425   0.53225   0.00000  Uiso   1.00
C2432  C     0.94910   0.68950   0.71750   0.00000  Uiso   1.00
C2433  C     0.94360   0.70000   0.55475   0.00000  Uiso   1.00
C2434  C     0.93115   0.67525   0.69700   0.00000  Uiso   1.00
C2435  C     0.92045   0.67775   0.73050   0.00000  Uiso   1.00
C2436  C     0.95510   0.69300   0.52250   0.00000  Uiso   1.00
Al2437 Al    0.99970   0.50000   0.62475   0.00000  Uiso   1.00
O2438  O     0.75000   0.52750   0.56100   0.00000  Uiso   1.00
O2439  O     0.76595   0.70675   0.61225   0.00000  Uiso   1.00
O2440  O     0.85938   0.67000   0.64000   0.00000  Uiso   1.00
O2441  O     0.77285   0.72525   0.54000   0.00000  Uiso   1.00
O2442  O     0.85390   0.66250   0.71575   0.00000  Uiso   1.00
C2443  C     0.77663   0.70525   0.58500   0.00000  Uiso   1.00
C2444  C     0.84840   0.66875   0.66625   0.00000  Uiso   1.00
C2445  C     0.80005   0.68075   0.65725   0.00000  Uiso   1.00
C2446  C     0.82410   0.68550   0.59250   0.00000  Uiso   1.00
C2447  C     0.81860   0.67500   0.67975   0.00000  Uiso   1.00
C2448  C     0.80615   0.69975   0.57200   0.00000  Uiso   1.00
C2449  C     0.79545   0.69725   0.60550   0.00000  Uiso   1.00
C2450  C     0.83010   0.68200   0.64750   0.00000  Uiso   1.00
Al2451 Al    0.87470   0.62500   0.62475   0.00000  Uiso   1.00
O2452  O     0.87500   0.65250   0.56100   0.00000  Uiso   1.00
O2453  O     0.89095   0.58175   0.61225   0.00000  Uiso   1.00
O2454  O     0.98438   0.54500   0.64000   0.00000  Uiso   1.00
O2455  O     0.89785   0.60025   0.54000   0.00000  Uiso   1.00
O2456  O     0.97890   0.53750   0.71575   0.00000  Uiso   1.00
C2457  C     0.90163   0.58025   0.58500   0.00000  Uiso   1.00
C2458  C     0.97340   0.54375   0.66625   0.00000  Uiso   1.00
C2459  C     0.92505   0.55575   0.65725   0.00000  Uiso   1.00
C2460  C     0.94910   0.56050   0.59250   0.00000  Uiso   1.00
C2461  C     0.94360   0.55000   0.67975   0.00000  Uiso   1.00
C2462  C     0.93115   0.57475   0.57200   0.00000  Uiso   1.00
C2463  C     0.92045   0.57225   0.60550   0.00000  Uiso   1.00
C2464  C     0.95510   0.55700   0.64750   0.00000  Uiso   1.00
Al2465 Al    0.24970   0.75000   0.74975   0.00000  Uiso   1.00
O2466  O     0.00000   0.97250   0.68600   0.00000  Uiso   1.00
O2467  O     0.01595   0.79325   0.73725   0.00000  Uiso   1.00
O2468  O     0.10938   0.83000   0.51500   0.00000  Uiso   1.00
O2469  O     0.02285   0.77475   0.66500   0.00000  Uiso   1.00
O2470  O     0.10390   0.83750   0.59075   0.00000  Uiso   1.00
C2471  C     0.02663   0.79475   0.71000   0.00000  Uiso   1.00
C2472  C     0.09840   0.83125   0.54125   0.00000  Uiso   1.00
C2473  C     0.05005   0.81925   0.53225   0.00000  Uiso   1.00
C2474  C     0.07410   0.81450   0.71750   0.00000  Uiso   1.00
C2475  C     0.06860   0.82500   0.55475   0.00000  Uiso   1.00
C2476  C     0.05615   0.80025   0.69700   0.00000  Uiso   1.00
C2477  C     0.04545   0.80275   0.73050   0.00000  Uiso   1.00
C2478  C     0.08010   0.81800   0.52250   0.00000  Uiso   1.00
Al2479 Al    0.12470   0.87500   0.74975   0.00000  Uiso   1.00
O2480  O     0.12500   0.84750   0.68600   0.00000  Uiso   1.00
O2481  O     0.14095   0.91825   0.73725   0.00000  Uiso   1.00
O2482  O     0.23438   0.95500   0.51500   0.00000  Uiso   1.00
O2483  O     0.14785   0.89975   0.66500   0.00000  Uiso   1.00
O2484  O     0.22890   0.96250   0.59075   0.00000  Uiso   1.00
C2485  C     0.15163   0.91975   0.71000   0.00000  Uiso   1.00
C2486  C     0.22340   0.95625   0.54125   0.00000  Uiso   1.00
C2487  C     0.17505   0.94425   0.53225   0.00000  Uiso   1.00
C2488  C     0.19910   0.93950   0.71750   0.00000  Uiso   1.00
C2489  C     0.19360   0.95000   0.55475   0.00000  Uiso   1.00
C2490  C     0.18115   0.92525   0.69700   0.00000  Uiso   1.00
C2491  C     0.17045   0.92775   0.73050   0.00000  Uiso   1.00
C2492  C     0.20510   0.94300   0.52250   0.00000  Uiso   1.00
Al2493 Al    0.24970   0.75000   0.62475   0.00000  Uiso   1.00
O2494  O     0.00000   0.77750   0.56100   0.00000  Uiso   1.00
O2495  O     0.01595   0.95675   0.61225   0.00000  Uiso   1.00
O2496  O     0.10938   0.92000   0.64000   0.00000  Uiso   1.00
O2497  O     0.02285   0.97525   0.54000   0.00000  Uiso   1.00
O2498  O     0.10390   0.91250   0.71575   0.00000  Uiso   1.00
C2499  C     0.02663   0.95525   0.58500   0.00000  Uiso   1.00
C2500  C     0.09840   0.91875   0.66625   0.00000  Uiso   1.00
C2501  C     0.05005   0.93075   0.65725   0.00000  Uiso   1.00
C2502  C     0.07410   0.93550   0.59250   0.00000  Uiso   1.00
C2503  C     0.06860   0.92500   0.67975   0.00000  Uiso   1.00
C2504  C     0.05615   0.94975   0.57200   0.00000  Uiso   1.00
C2505  C     0.04545   0.94725   0.60550   0.00000  Uiso   1.00
C2506  C     0.08010   0.93200   0.64750   0.00000  Uiso   1.00
Al2507 Al    0.12470   0.87500   0.62475   0.00000  Uiso   1.00
O2508  O     0.12500   0.90250   0.56100   0.00000  Uiso   1.00
O2509  O     0.14095   0.83175   0.61225   0.00000  Uiso   1.00
O2510  O     0.23438   0.79500   0.64000   0.00000  Uiso   1.00
O2511  O     0.14785   0.85025   0.54000   0.00000  Uiso   1.00
O2512  O     0.22890   0.78750   0.71575   0.00000  Uiso   1.00
C2513  C     0.15163   0.83025   0.58500   0.00000  Uiso   1.00
C2514  C     0.22340   0.79375   0.66625   0.00000  Uiso   1.00
C2515  C     0.17505   0.80575   0.65725   0.00000  Uiso   1.00
C2516  C     0.19910   0.81050   0.59250   0.00000  Uiso   1.00
C2517  C     0.19360   0.80000   0.67975   0.00000  Uiso   1.00
C2518  C     0.18115   0.82475   0.57200   0.00000  Uiso   1.00
C2519  C     0.17045   0.82225   0.60550   0.00000  Uiso   1.00
C2520  C     0.20510   0.80700   0.64750   0.00000  Uiso   1.00
Al2521 Al    0.49970   0.75000   0.74975   0.00000  Uiso   1.00
O2522  O     0.25000   0.97250   0.68600   0.00000  Uiso   1.00
O2523  O     0.26595   0.79325   0.73725   0.00000  Uiso   1.00
O2524  O     0.35938   0.83000   0.51500   0.00000  Uiso   1.00
O2525  O     0.27285   0.77475   0.66500   0.00000  Uiso   1.00
O2526  O     0.35390   0.83750   0.59075   0.00000  Uiso   1.00
C2527  C     0.27663   0.79475   0.71000   0.00000  Uiso   1.00
C2528  C     0.34840   0.83125   0.54125   0.00000  Uiso   1.00
C2529  C     0.30005   0.81925   0.53225   0.00000  Uiso   1.00
C2530  C     0.32410   0.81450   0.71750   0.00000  Uiso   1.00
C2531  C     0.31860   0.82500   0.55475   0.00000  Uiso   1.00
C2532  C     0.30615   0.80025   0.69700   0.00000  Uiso   1.00
C2533  C     0.29545   0.80275   0.73050   0.00000  Uiso   1.00
C2534  C     0.33010   0.81800   0.52250   0.00000  Uiso   1.00
Al2535 Al    0.37470   0.87500   0.74975   0.00000  Uiso   1.00
O2536  O     0.37500   0.84750   0.68600   0.00000  Uiso   1.00
O2537  O     0.39095   0.91825   0.73725   0.00000  Uiso   1.00
O2538  O     0.48438   0.95500   0.51500   0.00000  Uiso   1.00
O2539  O     0.39785   0.89975   0.66500   0.00000  Uiso   1.00
O2540  O     0.47890   0.96250   0.59075   0.00000  Uiso   1.00
C2541  C     0.40163   0.91975   0.71000   0.00000  Uiso   1.00
C2542  C     0.47340   0.95625   0.54125   0.00000  Uiso   1.00
C2543  C     0.42505   0.94425   0.53225   0.00000  Uiso   1.00
C2544  C     0.44910   0.93950   0.71750   0.00000  Uiso   1.00
C2545  C     0.44360   0.95000   0.55475   0.00000  Uiso   1.00
C2546  C     0.43115   0.92525   0.69700   0.00000  Uiso   1.00
C2547  C     0.42045   0.92775   0.73050   0.00000  Uiso   1.00
C2548  C     0.45510   0.94300   0.52250   0.00000  Uiso   1.00
Al2549 Al    0.49970   0.75000   0.62475   0.00000  Uiso   1.00
O2550  O     0.25000   0.77750   0.56100   0.00000  Uiso   1.00
O2551  O     0.26595   0.95675   0.61225   0.00000  Uiso   1.00
O2552  O     0.35938   0.92000   0.64000   0.00000  Uiso   1.00
O2553  O     0.27285   0.97525   0.54000   0.00000  Uiso   1.00
O2554  O     0.35390   0.91250   0.71575   0.00000  Uiso   1.00
C2555  C     0.27663   0.95525   0.58500   0.00000  Uiso   1.00
C2556  C     0.34840   0.91875   0.66625   0.00000  Uiso   1.00
C2557  C     0.30005   0.93075   0.65725   0.00000  Uiso   1.00
C2558  C     0.32410   0.93550   0.59250   0.00000  Uiso   1.00
C2559  C     0.31860   0.92500   0.67975   0.00000  Uiso   1.00
C2560  C     0.30615   0.94975   0.57200   0.00000  Uiso   1.00
C2561  C     0.29545   0.94725   0.60550   0.00000  Uiso   1.00
C2562  C     0.33010   0.93200   0.64750   0.00000  Uiso   1.00
Al2563 Al    0.37470   0.87500   0.62475   0.00000  Uiso   1.00
O2564  O     0.37500   0.90250   0.56100   0.00000  Uiso   1.00
O2565  O     0.39095   0.83175   0.61225   0.00000  Uiso   1.00
O2566  O     0.48438   0.79500   0.64000   0.00000  Uiso   1.00
O2567  O     0.39785   0.85025   0.54000   0.00000  Uiso   1.00
O2568  O     0.47890   0.78750   0.71575   0.00000  Uiso   1.00
C2569  C     0.40163   0.83025   0.58500   0.00000  Uiso   1.00
C2570  C     0.47340   0.79375   0.66625   0.00000  Uiso   1.00
C2571  C     0.42505   0.80575   0.65725   0.00000  Uiso   1.00
C2572  C     0.44910   0.81050   0.59250   0.00000  Uiso   1.00
C2573  C     0.44360   0.80000   0.67975   0.00000  Uiso   1.00
C2574  C     0.43115   0.82475   0.57200   0.00000  Uiso   1.00
C2575  C     0.42045   0.82225   0.60550   0.00000  Uiso   1.00
C2576  C     0.45510   0.80700   0.64750   0.00000  Uiso   1.00
Al2577 Al    0.74970   0.75000   0.74975   0.00000  Uiso   1.00
O2578  O     0.50000   0.97250   0.68600   0.00000  Uiso   1.00
O2579  O     0.51595   0.79325   0.73725   0.00000  Uiso   1.00
O2580  O     0.60938   0.83000   0.51500   0.00000  Uiso   1.00
O2581  O     0.52285   0.77475   0.66500   0.00000  Uiso   1.00
O2582  O     0.60390   0.83750   0.59075   0.00000  Uiso   1.00
C2583  C     0.52663   0.79475   0.71000   0.00000  Uiso   1.00
C2584  C     0.59840   0.83125   0.54125   0.00000  Uiso   1.00
C2585  C     0.55005   0.81925   0.53225   0.00000  Uiso   1.00
C2586  C     0.57410   0.81450   0.71750   0.00000  Uiso   1.00
C2587  C     0.56860   0.82500   0.55475   0.00000  Uiso   1.00
C2588  C     0.55615   0.80025   0.69700   0.00000  Uiso   1.00
C2589  C     0.54545   0.80275   0.73050   0.00000  Uiso   1.00
C2590  C     0.58010   0.81800   0.52250   0.00000  Uiso   1.00
Al2591 Al    0.62470   0.87500   0.74975   0.00000  Uiso   1.00
O2592  O     0.62500   0.84750   0.68600   0.00000  Uiso   1.00
O2593  O     0.64095   0.91825   0.73725   0.00000  Uiso   1.00
O2594  O     0.73438   0.95500   0.51500   0.00000  Uiso   1.00
O2595  O     0.64785   0.89975   0.66500   0.00000  Uiso   1.00
O2596  O     0.72890   0.96250   0.59075   0.00000  Uiso   1.00
C2597  C     0.65163   0.91975   0.71000   0.00000  Uiso   1.00
C2598  C     0.72340   0.95625   0.54125   0.00000  Uiso   1.00
C2599  C     0.67505   0.94425   0.53225   0.00000  Uiso   1.00
C2600  C     0.69910   0.93950   0.71750   0.00000  Uiso   1.00
C2601  C     0.69360   0.95000   0.55475   0.00000  Uiso   1.00
C2602  C     0.68115   0.92525   0.69700   0.00000  Uiso   1.00
C2603  C     0.67045   0.92775   0.73050   0.00000  Uiso   1.00
C2604  C     0.70510   0.94300   0.52250   0.00000  Uiso   1.00
Al2605 Al    0.74970   0.75000   0.62475   0.00000  Uiso   1.00
O2606  O     0.50000   0.77750   0.56100   0.00000  Uiso   1.00
O2607  O     0.51595   0.95675   0.61225   0.00000  Uiso   1.00
O2608  O     0.60938   0.92000   0.64000   0.00000  Uiso   1.00
O2609  O     0.52285   0.97525   0.54000   0.00000  Uiso   1.00
O2610  O     0.60390   0.91250   0.71575   0.00000  Uiso   1.00
C2611  C     0.52663   0.95525   0.58500   0.00000  Uiso   1.00
C2612  C     0.59840   0.91875   0.66625   0.00000  Uiso   1.00
C2613  C     0.55005   0.93075   0.65725   0.00000  Uiso   1.00
C2614  C     0.57410   0.93550   0.59250   0.00000  Uiso   1.00
C2615  C     0.56860   0.92500   0.67975   0.00000  Uiso   1.00
C2616  C     0.55615   0.94975   0.57200   0.00000  Uiso   1.00
C2617  C     0.54545   0.94725   0.60550   0.00000  Uiso   1.00
C2618  C     0.58010   0.93200   0.64750   0.00000  Uiso   1.00
Al2619 Al    0.62470   0.87500   0.62475   0.00000  Uiso   1.00
O2620  O     0.62500   0.90250   0.56100   0.00000  Uiso   1.00
O2621  O     0.64095   0.83175   0.61225   0.00000  Uiso   1.00
O2622  O     0.73438   0.79500   0.64000   0.00000  Uiso   1.00
O2623  O     0.64785   0.85025   0.54000   0.00000  Uiso   1.00
O2624  O     0.72890   0.78750   0.71575   0.00000  Uiso   1.00
C2625  C     0.65163   0.83025   0.58500   0.00000  Uiso   1.00
C2626  C     0.72340   0.79375   0.66625   0.00000  Uiso   1.00
C2627  C     0.67505   0.80575   0.65725   0.00000  Uiso   1.00
C2628  C     0.69910   0.81050   0.59250   0.00000  Uiso   1.00
C2629  C     0.69360   0.80000   0.67975   0.00000  Uiso   1.00
C2630  C     0.68115   0.82475   0.57200   0.00000  Uiso   1.00
C2631  C     0.67045   0.82225   0.60550   0.00000  Uiso   1.00
C2632  C     0.70510   0.80700   0.64750   0.00000  Uiso   1.00
Al2633 Al    0.99970   0.75000   0.74975   0.00000  Uiso   1.00
O2634  O     0.75000   0.97250   0.68600   0.00000  Uiso   1.00
O2635  O     0.76595   0.79325   0.73725   0.00000  Uiso   1.00
O2636  O     0.85938   0.83000   0.51500   0.00000  Uiso   1.00
O2637  O     0.77285   0.77475   0.66500   0.00000  Uiso   1.00
O2638  O     0.85390   0.83750   0.59075   0.00000  Uiso   1.00
C2639  C     0.77663   0.79475   0.71000   0.00000  Uiso   1.00
C2640  C     0.84840   0.83125   0.54125   0.00000  Uiso   1.00
C2641  C     0.80005   0.81925   0.53225   0.00000  Uiso   1.00
C2642  C     0.82410   0.81450   0.71750   0.00000  Uiso   1.00
C2643  C     0.81860   0.82500   0.55475   0.00000  Uiso   1.00
C2644  C     0.80615   0.80025   0.69700   0.00000  Uiso   1.00
C2645  C     0.79545   0.80275   0.73050   0.00000  Uiso   1.00
C2646  C     0.83010   0.81800   0.52250   0.00000  Uiso   1.00
Al2647 Al    0.87470   0.87500   0.74975   0.00000  Uiso   1.00
O2648  O     0.87500   0.84750   0.68600   0.00000  Uiso   1.00
O2649  O     0.89095   0.91825   0.73725   0.00000  Uiso   1.00
O2650  O     0.98438   0.95500   0.51500   0.00000  Uiso   1.00
O2651  O     0.89785   0.89975   0.66500   0.00000  Uiso   1.00
O2652  O     0.97890   0.96250   0.59075   0.00000  Uiso   1.00
C2653  C     0.90163   0.91975   0.71000   0.00000  Uiso   1.00
C2654  C     0.97340   0.95625   0.54125   0.00000  Uiso   1.00
C2655  C     0.92505   0.94425   0.53225   0.00000  Uiso   1.00
C2656  C     0.94910   0.93950   0.71750   0.00000  Uiso   1.00
C2657  C     0.94360   0.95000   0.55475   0.00000  Uiso   1.00
C2658  C     0.93115   0.92525   0.69700   0.00000  Uiso   1.00
C2659  C     0.92045   0.92775   0.73050   0.00000  Uiso   1.00
C2660  C     0.95510   0.94300   0.52250   0.00000  Uiso   1.00
Al2661 Al    0.99970   0.75000   0.62475   0.00000  Uiso   1.00
O2662  O     0.75000   0.77750   0.56100   0.00000  Uiso   1.00
O2663  O     0.76595   0.95675   0.61225   0.00000  Uiso   1.00
O2664  O     0.85938   0.92000   0.64000   0.00000  Uiso   1.00
O2665  O     0.77285   0.97525   0.54000   0.00000  Uiso   1.00
O2666  O     0.85390   0.91250   0.71575   0.00000  Uiso   1.00
C2667  C     0.77663   0.95525   0.58500   0.00000  Uiso   1.00
C2668  C     0.84840   0.91875   0.66625   0.00000  Uiso   1.00
C2669  C     0.80005   0.93075   0.65725   0.00000  Uiso   1.00
C2670  C     0.82410   0.93550   0.59250   0.00000  Uiso   1.00
C2671  C     0.81860   0.92500   0.67975   0.00000  Uiso   1.00
C2672  C     0.80615   0.94975   0.57200   0.00000  Uiso   1.00
C2673  C     0.79545   0.94725   0.60550   0.00000  Uiso   1.00
C2674  C     0.83010   0.93200   0.64750   0.00000  Uiso   1.00
Al2675 Al    0.87470   0.87500   0.62475   0.00000  Uiso   1.00
O2676  O     0.87500   0.90250   0.56100   0.00000  Uiso   1.00
O2677  O     0.89095   0.83175   0.61225   0.00000  Uiso   1.00
O2678  O     0.98438   0.79500   0.64000   0.00000  Uiso   1.00
O2679  O     0.89785   0.85025   0.54000   0.00000  Uiso   1.00
O2680  O     0.97890   0.78750   0.71575   0.00000  Uiso   1.00
C2681  C     0.90163   0.83025   0.58500   0.00000  Uiso   1.00
C2682  C     0.97340   0.79375   0.66625   0.00000  Uiso   1.00
C2683  C     0.92505   0.80575   0.65725   0.00000  Uiso   1.00
C2684  C     0.94910   0.81050   0.59250   0.00000  Uiso   1.00
C2685  C     0.94360   0.80000   0.67975   0.00000  Uiso   1.00
C2686  C     0.93115   0.82475   0.57200   0.00000  Uiso   1.00
C2687  C     0.92045   0.82225   0.60550   0.00000  Uiso   1.00
C2688  C     0.95510   0.80700   0.64750   0.00000  Uiso   1.00
Al2689 Al    0.24970   0.00000   0.99975   0.00000  Uiso   1.00
O2690  O     0.00000   0.22250   0.93600   0.00000  Uiso   1.00
O2691  O     0.01595   0.04325   0.98725   0.00000  Uiso   1.00
O2692  O     0.10938   0.08000   0.76500   0.00000  Uiso   1.00
O2693  O     0.02285   0.02475   0.91500   0.00000  Uiso   1.00
O2694  O     0.10390   0.08750   0.84075   0.00000  Uiso   1.00
C2695  C     0.02663   0.04475   0.96000   0.00000  Uiso   1.00
C2696  C     0.09840   0.08125   0.79125   0.00000  Uiso   1.00
C2697  C     0.05005   0.06925   0.78225   0.00000  Uiso   1.00
C2698  C     0.07410   0.06450   0.96750   0.00000  Uiso   1.00
C2699  C     0.06860   0.07500   0.80475   0.00000  Uiso   1.00
C2700  C     0.05615   0.05025   0.94700   0.00000  Uiso   1.00
C2701  C     0.04545   0.05275   0.98050   0.00000  Uiso   1.00
C2702  C     0.08010   0.06800   0.77250   0.00000  Uiso   1.00
Al2703 Al    0.12470   0.12500   0.99975   0.00000  Uiso   1.00
O2704  O     0.12500   0.09750   0.93600   0.00000  Uiso   1.00
O2705  O     0.14095   0.16825   0.98725   0.00000  Uiso   1.00
O2706  O     0.23438   0.20500   0.76500   0.00000  Uiso   1.00
O2707  O     0.14785   0.14975   0.91500   0.00000  Uiso   1.00
O2708  O     0.22890   0.21250   0.84075   0.00000  Uiso   1.00
C2709  C     0.15163   0.16975   0.96000   0.00000  Uiso   1.00
C2710  C     0.22340   0.20625   0.79125   0.00000  Uiso   1.00
C2711  C     0.17505   0.19425   0.78225   0.00000  Uiso   1.00
C2712  C     0.19910   0.18950   0.96750   0.00000  Uiso   1.00
C2713  C     0.19360   0.20000   0.80475   0.00000  Uiso   1.00
C2714  C     0.18115   0.17525   0.94700   0.00000  Uiso   1.00
C2715  C     0.17045   0.17775   0.98050   0.00000  Uiso   1.00
C2716  C     0.20510   0.19300   0.77250   0.00000  Uiso   1.00
Al2717 Al    0.24970   0.00000   0.87475   0.00000  Uiso   1.00
O2718  O     0.00000   0.02750   0.81100   0.00000  Uiso   1.00
O2719  O     0.01595   0.20675   0.86225   0.00000  Uiso   1.00
O2720  O     0.10938   0.17000   0.89000   0.00000  Uiso   1.00
O2721  O     0.02285   0.22525   0.79000   0.00000  Uiso   1.00
O2722  O     0.10390   0.16250   0.96575   0.00000  Uiso   1.00
C2723  C     0.02663   0.20525   0.83500   0.00000  Uiso   1.00
C2724  C     0.09840   0.16875   0.91625   0.00000  Uiso   1.00
C2725  C     0.05005   0.18075   0.90725   0.00000  Uiso   1.00
C2726  C     0.07410   0.18550   0.84250   0.00000  Uiso   1.00
C2727  C     0.06860   0.17500   0.92975   0.00000  Uiso   1.00
C2728  C     0.05615   0.19975   0.82200   0.00000  Uiso   1.00
C2729  C     0.04545   0.19725   0.85550   0.00000  Uiso   1.00
C2730  C     0.08010   0.18200   0.89750   0.00000  Uiso   1.00
Al2731 Al    0.12470   0.12500   0.87475   0.00000  Uiso   1.00
O2732  O     0.12500   0.15250   0.81100   0.00000  Uiso   1.00
O2733  O     0.14095   0.08175   0.86225   0.00000  Uiso   1.00
O2734  O     0.23438   0.04500   0.89000   0.00000  Uiso   1.00
O2735  O     0.14785   0.10025   0.79000   0.00000  Uiso   1.00
O2736  O     0.22890   0.03750   0.96575   0.00000  Uiso   1.00
C2737  C     0.15163   0.08025   0.83500   0.00000  Uiso   1.00
C2738  C     0.22340   0.04375   0.91625   0.00000  Uiso   1.00
C2739  C     0.17505   0.05575   0.90725   0.00000  Uiso   1.00
C2740  C     0.19910   0.06050   0.84250   0.00000  Uiso   1.00
C2741  C     0.19360   0.05000   0.92975   0.00000  Uiso   1.00
C2742  C     0.18115   0.07475   0.82200   0.00000  Uiso   1.00
C2743  C     0.17045   0.07225   0.85550   0.00000  Uiso   1.00
C2744  C     0.20510   0.05700   0.89750   0.00000  Uiso   1.00
Al2745 Al    0.49970   0.00000   0.99975   0.00000  Uiso   1.00
O2746  O     0.25000   0.22250   0.93600   0.00000  Uiso   1.00
O2747  O     0.26595   0.04325   0.98725   0.00000  Uiso   1.00
O2748  O     0.35938   0.08000   0.76500   0.00000  Uiso   1.00
O2749  O     0.27285   0.02475   0.91500   0.00000  Uiso   1.00
O2750  O     0.35390   0.08750   0.84075   0.00000  Uiso   1.00
C2751  C     0.27663   0.04475   0.96000   0.00000  Uiso   1.00
C2752  C     0.34840   0.08125   0.79125   0.00000  Uiso   1.00
C2753  C     0.30005   0.06925   0.78225   0.00000  Uiso   1.00
C2754  C     0.32410   0.06450   0.96750   0.00000  Uiso   1.00
C2755  C     0.31860   0.07500   0.80475   0.00000  Uiso   1.00
C2756  C     0.30615   0.05025   0.94700   0.00000  Uiso   1.00
C2757  C     0.29545   0.05275   0.98050   0.00000  Uiso   1.00
C2758  C     0.33010   0.06800   0.77250   0.00000  Uiso   1.00
Al2759 Al    0.37470   0.12500   0.99975   0.00000  Uiso   1.00
O2760  O     0.37500   0.09750   0.93600   0.00000  Uiso   1.00
O2761  O     0.39095   0.16825   0.98725   0.00000  Uiso   1.00
O2762  O     0.48438   0.20500   0.76500   0.00000  Uiso   1.00
O2763  O     0.39785   0.14975   0.91500   0.00000  Uiso   1.00
O2764  O     0.47890   0.21250   0.84075   0.00000  Uiso   1.00
C2765  C     0.40163   0.16975   0.96000   0.00000  Uiso   1.00
C2766  C     0.47340   0.20625   0.79125   0.00000  Uiso   1.00
C2767  C     0.42505   0.19425   0.78225   0.00000  Uiso   1.00
C2768  C     0.44910   0.18950   0.96750   0.00000  Uiso   1.00
C2769  C     0.44360   0.20000   0.80475   0.00000  Uiso   1.00
C2770  C     0.43115   0.17525   0.94700   0.00000  Uiso   1.00
C2771  C     0.42045   0.17775   0.98050   0.00000  Uiso   1.00
C2772  C     0.45510   0.19300   0.77250   0.00000  Uiso   1.00
Al2773 Al    0.49970   0.00000   0.87475   0.00000  Uiso   1.00
O2774  O     0.25000   0.02750   0.81100   0.00000  Uiso   1.00
O2775  O     0.26595   0.20675   0.86225   0.00000  Uiso   1.00
O2776  O     0.35938   0.17000   0.89000   0.00000  Uiso   1.00
O2777  O     0.27285   0.22525   0.79000   0.00000  Uiso   1.00
O2778  O     0.35390   0.16250   0.96575   0.00000  Uiso   1.00
C2779  C     0.27663   0.20525   0.83500   0.00000  Uiso   1.00
C2780  C     0.34840   0.16875   0.91625   0.00000  Uiso   1.00
C2781  C     0.30005   0.18075   0.90725   0.00000  Uiso   1.00
C2782  C     0.32410   0.18550   0.84250   0.00000  Uiso   1.00
C2783  C     0.31860   0.17500   0.92975   0.00000  Uiso   1.00
C2784  C     0.30615   0.19975   0.82200   0.00000  Uiso   1.00
C2785  C     0.29545   0.19725   0.85550   0.00000  Uiso   1.00
C2786  C     0.33010   0.18200   0.89750   0.00000  Uiso   1.00
Al2787 Al    0.37470   0.12500   0.87475   0.00000  Uiso   1.00
O2788  O     0.37500   0.15250   0.81100   0.00000  Uiso   1.00
O2789  O     0.39095   0.08175   0.86225   0.00000  Uiso   1.00
O2790  O     0.48438   0.04500   0.89000   0.00000  Uiso   1.00
O2791  O     0.39785   0.10025   0.79000   0.00000  Uiso   1.00
O2792  O     0.47890   0.03750   0.96575   0.00000  Uiso   1.00
C2793  C     0.40163   0.08025   0.83500   0.00000  Uiso   1.00
C2794  C     0.47340   0.04375   0.91625   0.00000  Uiso   1.00
C2795  C     0.42505   0.05575   0.90725   0.00000  Uiso   1.00
C2796  C     0.44910   0.06050   0.84250   0.00000  Uiso   1.00
C2797  C     0.44360   0.05000   0.92975   0.00000  Uiso   1.00
C2798  C     0.43115   0.07475   0.82200   0.00000  Uiso   1.00
C2799  C     0.42045   0.07225   0.85550   0.00000  Uiso   1.00
C2800  C     0.45510   0.05700   0.89750   0.00000  Uiso   1.00
Al2801 Al    0.74970   0.00000   0.99975   0.00000  Uiso   1.00
O2802  O     0.50000   0.22250   0.93600   0.00000  Uiso   1.00
O2803  O     0.51595   0.04325   0.98725   0.00000  Uiso   1.00
O2804  O     0.60938   0.08000   0.76500   0.00000  Uiso   1.00
O2805  O     0.52285   0.02475   0.91500   0.00000  Uiso   1.00
O2806  O     0.60390   0.08750   0.84075   0.00000  Uiso   1.00
C2807  C     0.52663   0.04475   0.96000   0.00000  Uiso   1.00
C2808  C     0.59840   0.08125   0.79125   0.00000  Uiso   1.00
C2809  C     0.55005   0.06925   0.78225   0.00000  Uiso   1.00
C2810  C     0.57410   0.06450   0.96750   0.00000  Uiso   1.00
C2811  C     0.56860   0.07500   0.80475   0.00000  Uiso   1.00
C2812  C     0.55615   0.05025   0.94700   0.00000  Uiso   1.00
C2813  C     0.54545   0.05275   0.98050   0.00000  Uiso   1.00
C2814  C     0.58010   0.06800   0.77250   0.00000  Uiso   1.00
Al2815 Al    0.62470   0.12500   0.99975   0.00000  Uiso   1.00
O2816  O     0.62500   0.09750   0.93600   0.00000  Uiso   1.00
O2817  O     0.64095   0.16825   0.98725   0.00000  Uiso   1.00
O2818  O     0.73438   0.20500   0.76500   0.00000  Uiso   1.00
O2819  O     0.64785   0.14975   0.91500   0.00000  Uiso   1.00
O2820  O     0.72890   0.21250   0.84075   0.00000  Uiso   1.00
C2821  C     0.65163   0.16975   0.96000   0.00000  Uiso   1.00
C2822  C     0.72340   0.20625   0.79125   0.00000  Uiso   1.00
C2823  C     0.67505   0.19425   0.78225   0.00000  Uiso   1.00
C2824  C     0.69910   0.18950   0.96750   0.00000  Uiso   1.00
C2825  C     0.69360   0.20000   0.80475   0.00000  Uiso   1.00
C2826  C     0.68115   0.17525   0.94700   0.00000  Uiso   1.00
C2827  C     0.67045   0.17775   0.98050   0.00000  Uiso   1.00
C2828  C     0.70510   0.19300   0.77250   0.00000  Uiso   1.00
Al2829 Al    0.74970   0.00000   0.87475   0.00000  Uiso   1.00
O2830  O     0.50000   0.02750   0.81100   0.00000  Uiso   1.00
O2831  O     0.51595   0.20675   0.86225   0.00000  Uiso   1.00
O2832  O     0.60938   0.17000   0.89000   0.00000  Uiso   1.00
O2833  O     0.52285   0.22525   0.79000   0.00000  Uiso   1.00
O2834  O     0.60390   0.16250   0.96575   0.00000  Uiso   1.00
C2835  C     0.52663   0.20525   0.83500   0.00000  Uiso   1.00
C2836  C     0.59840   0.16875   0.91625   0.00000  Uiso   1.00
C2837  C     0.55005   0.18075   0.90725   0.00000  Uiso   1.00
C2838  C     0.57410   0.18550   0.84250   0.00000  Uiso   1.00
C2839  C     0.56860   0.17500   0.92975   0.00000  Uiso   1.00
C2840  C     0.55615   0.19975   0.82200   0.00000  Uiso   1.00
C2841  C     0.54545   0.19725   0.85550   0.00000  Uiso   1.00
C2842  C     0.58010   0.18200   0.89750   0.00000  Uiso   1.00
Al2843 Al    0.62470   0.12500   0.87475   0.00000  Uiso   1.00
O2844  O     0.62500   0.15250   0.81100   0.00000  Uiso   1.00
O2845  O     0.64095   0.08175   0.86225   0.00000  Uiso   1.00
O2846  O     0.73438   0.04500   0.89000   0.00000  Uiso   1.00
O2847  O     0.64785   0.10025   0.79000   0.00000  Uiso   1.00
O2848  O     0.72890   0.03750   0.96575   0.00000  Uiso   1.00
C2849  C     0.65163   0.08025   0.83500   0.00000  Uiso   1.00
C2850  C     0.72340   0.04375   0.91625   0.00000  Uiso   1.00
C2851  C     0.67505   0.05575   0.90725   0.00000  Uiso   1.00
C2852  C     0.69910   0.06050   0.84250   0.00000  Uiso   1.00
C2853  C     0.69360   0.05000   0.92975   0.00000  Uiso   1.00
C2854  C     0.68115   0.07475   0.82200   0.00000  Uiso   1.00
C2855  C     0.67045   0.07225   0.85550   0.00000  Uiso   1.00
C2856  C     0.70510   0.05700   0.89750   0.00000  Uiso   1.00
Al2857 Al    0.99970   0.00000   0.99975   0.00000  Uiso   1.00
O2858  O     0.75000   0.22250   0.93600   0.00000  Uiso   1.00
O2859  O     0.76595   0.04325   0.98725   0.00000  Uiso   1.00
O2860  O     0.85938   0.08000   0.76500   0.00000  Uiso   1.00
O2861  O     0.77285   0.02475   0.91500   0.00000  Uiso   1.00
O2862  O     0.85390   0.08750   0.84075   0.00000  Uiso   1.00
C2863  C     0.77663   0.04475   0.96000   0.00000  Uiso   1.00
C2864  C     0.84840   0.08125   0.79125   0.00000  Uiso   1.00
C2865  C     0.80005   0.06925   0.78225   0.00000  Uiso   1.00
C2866  C     0.82410   0.06450   0.96750   0.00000  Uiso   1.00
C2867  C     0.81860   0.07500   0.80475   0.00000  Uiso   1.00
C2868  C     0.80615   0.05025   0.94700   0.00000  Uiso   1.00
C2869  C     0.79545   0.05275   0.98050   0.00000  Uiso   1.00
C2870  C     0.83010   0.06800   0.77250   0.00000  Uiso   1.00
Al2871 Al    0.87470   0.12500   0.99975   0.00000  Uiso   1.00
O2872  O     0.87500   0.09750   0.93600   0.00000  Uiso   1.00
O2873  O     0.89095   0.16825   0.98725   0.00000  Uiso   1.00
O2874  O     0.98438   0.20500   0.76500   0.00000  Uiso   1.00
O2875  O     0.89785   0.14975   0.91500   0.00000  Uiso   1.00
O2876  O     0.97890   0.21250   0.84075   0.00000  Uiso   1.00
C2877  C     0.90163   0.16975   0.96000   0.00000  Uiso   1.00
C2878  C     0.97340   0.20625   0.79125   0.00000  Uiso   1.00
C2879  C     0.92505   0.19425   0.78225   0.00000  Uiso   1.00
C2880  C     0.94910   0.18950   0.96750   0.00000  Uiso   1.00
C2881  C     0.94360   0.20000   0.80475   0.00000  Uiso   1.00
C2882  C     0.93115   0.17525   0.94700   0.00000  Uiso   1.00
C2883  C     0.92045   0.17775   0.98050   0.00000  Uiso   1.00
C2884  C     0.95510   0.19300   0.77250   0.00000  Uiso   1.00
Al2885 Al    0.99970   0.00000   0.87475   0.00000  Uiso   1.00
O2886  O     0.75000   0.02750   0.81100   0.00000  Uiso   1.00
O2887  O     0.76595   0.20675   0.86225   0.00000  Uiso   1.00
O2888  O     0.85938   0.17000   0.89000   0.00000  Uiso   1.00
O2889  O     0.77285   0.22525   0.79000   0.00000  Uiso   1.00
O2890  O     0.85390   0.16250   0.96575   0.00000  Uiso   1.00
C2891  C     0.77663   0.20525   0.83500   0.00000  Uiso   1.00
C2892  C     0.84840   0.16875   0.91625   0.00000  Uiso   1.00
C2893  C     0.80005   0.18075   0.90725   0.00000  Uiso   1.00
C2894  C     0.82410   0.18550   0.84250   0.00000  Uiso   1.00
C2895  C     0.81860   0.17500   0.92975   0.00000  Uiso   1.00
C2896  C     0.80615   0.19975   0.82200   0.00000  Uiso   1.00
C2897  C     0.79545   0.19725   0.85550   0.00000  Uiso   1.00
C2898  C     0.83010   0.18200   0.89750   0.00000  Uiso   1.00
Al2899 Al    0.87470   0.12500   0.87475   0.00000  Uiso   1.00
O2900  O     0.87500   0.15250   0.81100   0.00000  Uiso   1.00
O2901  O     0.89095   0.08175   0.86225   0.00000  Uiso   1.00
O2902  O     0.98438   0.04500   0.89000   0.00000  Uiso   1.00
O2903  O     0.89785   0.10025   0.79000   0.00000  Uiso   1.00
O2904  O     0.97890   0.03750   0.96575   0.00000  Uiso   1.00
C2905  C     0.90163   0.08025   0.83500   0.00000  Uiso   1.00
C2906  C     0.97340   0.04375   0.91625   0.00000  Uiso   1.00
C2907  C     0.92505   0.05575   0.90725   0.00000  Uiso   1.00
C2908  C     0.94910   0.06050   0.84250   0.00000  Uiso   1.00
C2909  C     0.94360   0.05000   0.92975   0.00000  Uiso   1.00
C2910  C     0.93115   0.07475   0.82200   0.00000  Uiso   1.00
C2911  C     0.92045   0.07225   0.85550   0.00000  Uiso   1.00
C2912  C     0.95510   0.05700   0.89750   0.00000  Uiso   1.00
Al2913 Al    0.24970   0.25000   0.99975   0.00000  Uiso   1.00
O2914  O     0.00000   0.47250   0.93600   0.00000  Uiso   1.00
O2915  O     0.01595   0.29325   0.98725   0.00000  Uiso   1.00
O2916  O     0.10938   0.33000   0.76500   0.00000  Uiso   1.00
O2917  O     0.02285   0.27475   0.91500   0.00000  Uiso   1.00
O2918  O     0.10390   0.33750   0.84075   0.00000  Uiso   1.00
C2919  C     0.02663   0.29475   0.96000   0.00000  Uiso   1.00
C2920  C     0.09840   0.33125   0.79125   0.00000  Uiso   1.00
C2921  C     0.05005   0.31925   0.78225   0.00000  Uiso   1.00
C2922  C     0.07410   0.31450   0.96750   0.00000  Uiso   1.00
C2923  C     0.06860   0.32500   0.80475   0.00000  Uiso   1.00
C2924  C     0.05615   0.30025   0.94700   0.00000  Uiso   1.00
C2925  C     0.04545   0.30275   0.98050   0.00000  Uiso   1.00
C2926  C     0.08010   0.31800   0.77250   0.00000  Uiso   1.00
Al2927 Al    0.12470   0.37500   0.99975   0.00000  Uiso   1.00
O2928  O     0.12500   0.34750   0.93600   0.00000  Uiso   1.00
O2929  O     0.14095   0.41825   0.98725   0.00000  Uiso   1.00
O2930  O     0.23438   0.45500   0.76500   0.00000  Uiso   1.00
O2931  O     0.14785   0.39975   0.91500   0.00000  Uiso   1.00
O2932  O     0.22890   0.46250   0.84075   0.00000  Uiso   1.00
C2933  C     0.15163   0.41975   0.96000   0.00000  Uiso   1.00
C2934  C     0.22340   0.45625   0.79125   0.00000  Uiso   1.00
C2935  C     0.17505   0.44425   0.78225   0.00000  Uiso   1.00
C2936  C     0.19910   0.43950   0.96750   0.00000  Uiso   1.00
C2937  C     0.19360   0.45000   0.80475   0.00000  Uiso   1.00
C2938  C     0.18115   0.42525   0.94700   0.00000  Uiso   1.00
C2939  C     0.17045   0.42775   0.98050   0.00000  Uiso   1.00
C2940  C     0.20510   0.44300   0.77250   0.00000  Uiso   1.00
Al2941 Al    0.24970   0.25000   0.87475   0.00000  Uiso   1.00
O2942  O     0.00000   0.27750   0.81100   0.00000  Uiso   1.00
O2943  O     0.01595   0.45675   0.86225   0.00000  Uiso   1.00
O2944  O     0.10938   0.42000   0.89000   0.00000  Uiso   1.00
O2945  O     0.02285   0.47525   0.79000   0.00000  Uiso   1.00
O2946  O     0.10390   0.41250   0.96575   0.00000  Uiso   1.00
C2947  C     0.02663   0.45525   0.83500   0.00000  Uiso   1.00
C2948  C     0.09840   0.41875   0.91625   0.00000  Uiso   1.00
C2949  C     0.05005   0.43075   0.90725   0.00000  Uiso   1.00
C2950  C     0.07410   0.43550   0.84250   0.00000  Uiso   1.00
C2951  C     0.06860   0.42500   0.92975   0.00000  Uiso   1.00
C2952  C     0.05615   0.44975   0.82200   0.00000  Uiso   1.00
C2953  C     0.04545   0.44725   0.85550   0.00000  Uiso   1.00
C2954  C     0.08010   0.43200   0.89750   0.00000  Uiso   1.00
Al2955 Al    0.12470   0.37500   0.87475   0.00000  Uiso   1.00
O2956  O     0.12500   0.40250   0.81100   0.00000  Uiso   1.00
O2957  O     0.14095   0.33175   0.86225   0.00000  Uiso   1.00
O2958  O     0.23438   0.29500   0.89000   0.00000  Uiso   1.00
O2959  O     0.14785   0.35025   0.79000   0.00000  Uiso   1.00
O2960  O     0.22890   0.28750   0.96575   0.00000  Uiso   1.00
C2961  C     0.15163   0.33025   0.83500   0.00000  Uiso   1.00
C2962  C     0.22340   0.29375   0.91625   0.00000  Uiso   1.00
C2963  C     0.17505   0.30575   0.90725   0.00000  Uiso   1.00
C2964  C     0.19910   0.31050   0.84250   0.00000  Uiso   1.00
C2965  C     0.19360   0.30000   0.92975   0.00000  Uiso   1.00
C2966  C     0.18115   0.32475   0.82200   0.00000  Uiso   1.00
C2967  C     0.17045   0.32225   0.85550   0.00000  Uiso   1.00
C2968  C     0.20510   0.30700   0.89750   0.00000  Uiso   1.00
Al2969 Al    0.49970   0.25000   0.99975   0.00000  Uiso   1.00
O2970  O     0.25000   0.47250   0.93600   0.00000  Uiso   1.00
O2971  O     0.26595   0.29325   0.98725   0.00000  Uiso   1.00
O2972  O     0.35938   0.33000   0.76500   0.00000  Uiso   1.00
O2973  O     0.27285   0.27475   0.91500   0.00000  Uiso   1.00
O2974  O     0.35390   0.33750   0.84075   0.00000  Uiso   1.00
C2975  C     0.27663   0.29475   0.96000   0.00000  Uiso   1.00
C2976  C     0.34840   0.33125   0.79125   0.00000  Uiso   1.00
C2977  C     0.30005   0.31925   0.78225   0.00000  Uiso   1.00
C2978  C     0.32410   0.31450   0.96750   0.00000  Uiso   1.00
C2979  C     0.31860   0.32500   0.80475   0.00000  Uiso   1.00
C2980  C     0.30615   0.30025   0.94700   0.00000  Uiso   1.00
C2981  C     0.29545   0.30275   0.98050   0.00000  Uiso   1.00
C2982  C     0.33010   0.31800   0.77250   0.00000  Uiso   1.00
Al2983 Al    0.37470   0.37500   0.99975   0.00000  Uiso   1.00
O2984  O     0.37500   0.34750   0.93600   0.00000  Uiso   1.00
O2985  O     0.39095   0.41825   0.98725   0.00000  Uiso   1.00
O2986  O     0.48438   0.45500   0.76500   0.00000  Uiso   1.00
O2987  O     0.39785   0.39975   0.91500   0.00000  Uiso   1.00
O2988  O     0.47890   0.46250   0.84075   0.00000  Uiso   1.00
C2989  C     0.40163   0.41975   0.96000   0.00000  Uiso   1.00
C2990  C     0.47340   0.45625   0.79125   0.00000  Uiso   1.00
C2991  C     0.42505   0.44425   0.78225   0.00000  Uiso   1.00
C2992  C     0.44910   0.43950   0.96750   0.00000  Uiso   1.00
C2993  C     0.44360   0.45000   0.80475   0.00000  Uiso   1.00
C2994  C     0.43115   0.42525   0.94700   0.00000  Uiso   1.00
C2995  C     0.42045   0.42775   0.98050   0.00000  Uiso   1.00
C2996  C     0.45510   0.44300   0.77250   0.00000  Uiso   1.00
Al2997 Al    0.49970   0.25000   0.87475   0.00000  Uiso   1.00
O2998  O     0.25000   0.27750   0.81100   0.00000  Uiso   1.00
O2999  O     0.26595   0.45675   0.86225   0.00000  Uiso   1.00
O3000  O     0.35938   0.42000   0.89000   0.00000  Uiso   1.00
O3001  O     0.27285   0.47525   0.79000   0.00000  Uiso   1.00
O3002  O     0.35390   0.41250   0.96575   0.00000  Uiso   1.00
C3003  C     0.27663   0.45525   0.83500   0.00000  Uiso   1.00
C3004  C     0.34840   0.41875   0.91625   0.00000  Uiso   1.00
C3005  C     0.30005   0.43075   0.90725   0.00000  Uiso   1.00
C3006  C     0.32410   0.43550   0.84250   0.00000  Uiso   1.00
C3007  C     0.31860   0.42500   0.92975   0.00000  Uiso   1.00
C3008  C     0.30615   0.44975   0.82200   0.00000  Uiso   1.00
C3009  C     0.29545   0.44725   0.85550   0.00000  Uiso   1.00
C3010  C     0.33010   0.43200   0.89750   0.00000  Uiso   1.00
Al3011 Al    0.37470   0.37500   0.87475   0.00000  Uiso   1.00
O3012  O     0.37500   0.40250   0.81100   0.00000  Uiso   1.00
O3013  O     0.39095   0.33175   0.86225   0.00000  Uiso   1.00
O3014  O     0.48438   0.29500   0.89000   0.00000  Uiso   1.00
O3015  O     0.39785   0.35025   0.79000   0.00000  Uiso   1.00
O3016  O     0.47890   0.28750   0.96575   0.00000  Uiso   1.00
C3017  C     0.40163   0.33025   0.83500   0.00000  Uiso   1.00
C3018  C     0.47340   0.29375   0.91625   0.00000  Uiso   1.00
C3019  C     0.42505   0.30575   0.90725   0.00000  Uiso   1.00
C3020  C     0.44910   0.31050   0.84250   0.00000  Uiso   1.00
C3021  C     0.44360   0.30000   0.92975   0.00000  Uiso   1.00
C3022  C     0.43115   0.32475   0.82200   0.00000  Uiso   1.00
C3023  C     0.42045   0.32225   0.85550   0.00000  Uiso   1.00
C3024  C     0.45510   0.30700   0.89750   0.00000  Uiso   1.00
Al3025 Al    0.74970   0.25000   0.99975   0.00000  Uiso   1.00
O3026  O     0.50000   0.47250   0.93600   0.00000  Uiso   1.00
O3027  O     0.51595   0.29325   0.98725   0.00000  Uiso   1.00
O3028  O     0.60938   0.33000   0.76500   0.00000  Uiso   1.00
O3029  O     0.52285   0.27475   0.91500   0.00000  Uiso   1.00
O3030  O     0.60390   0.33750   0.84075   0.00000  Uiso   1.00
C3031  C     0.52663   0.29475   0.96000   0.00000  Uiso   1.00
C3032  C     0.59840   0.33125   0.79125   0.00000  Uiso   1.00
C3033  C     0.55005   0.31925   0.78225   0.00000  Uiso   1.00
C3034  C     0.57410   0.31450   0.96750   0.00000  Uiso   1.00
C3035  C     0.56860   0.32500   0.80475   0.00000  Uiso   1.00
C3036  C     0.55615   0.30025   0.94700   0.00000  Uiso   1.00
C3037  C     0.54545   0.30275   0.98050   0.00000  Uiso   1.00
C3038  C     0.58010   0.31800   0.77250   0.00000  Uiso   1.00
Al3039 Al    0.62470   0.37500   0.99975   0.00000  Uiso   1.00
O3040  O     0.62500   0.34750   0.93600   0.00000  Uiso   1.00
O3041  O     0.64095   0.41825   0.98725   0.00000  Uiso   1.00
O3042  O     0.73438   0.45500   0.76500   0.00000  Uiso   1.00
O3043  O     0.64785   0.39975   0.91500   0.00000  Uiso   1.00
O3044  O     0.72890   0.46250   0.84075   0.00000  Uiso   1.00
C3045  C     0.65163   0.41975   0.96000   0.00000  Uiso   1.00
C3046  C     0.72340   0.45625   0.79125   0.00000  Uiso   1.00
C3047  C     0.67505   0.44425   0.78225   0.00000  Uiso   1.00
C3048  C     0.69910   0.43950   0.96750   0.00000  Uiso   1.00
C3049  C     0.69360   0.45000   0.80475   0.00000  Uiso   1.00
C3050  C     0.68115   0.42525   0.94700   0.00000  Uiso   1.00
C3051  C     0.67045   0.42775   0.98050   0.00000  Uiso   1.00
C3052  C     0.70510   0.44300   0.77250   0.00000  Uiso   1.00
Al3053 Al    0.74970   0.25000   0.87475   0.00000  Uiso   1.00
O3054  O     0.50000   0.27750   0.81100   0.00000  Uiso   1.00
O3055  O     0.51595   0.45675   0.86225   0.00000  Uiso   1.00
O3056  O     0.60938   0.42000   0.89000   0.00000  Uiso   1.00
O3057  O     0.52285   0.47525   0.79000   0.00000  Uiso   1.00
O3058  O     0.60390   0.41250   0.96575   0.00000  Uiso   1.00
C3059  C     0.52663   0.45525   0.83500   0.00000  Uiso   1.00
C3060  C     0.59840   0.41875   0.91625   0.00000  Uiso   1.00
C3061  C     0.55005   0.43075   0.90725   0.00000  Uiso   1.00
C3062  C     0.57410   0.43550   0.84250   0.00000  Uiso   1.00
C3063  C     0.56860   0.42500   0.92975   0.00000  Uiso   1.00
C3064  C     0.55615   0.44975   0.82200   0.00000  Uiso   1.00
C3065  C     0.54545   0.44725   0.85550   0.00000  Uiso   1.00
C3066  C     0.58010   0.43200   0.89750   0.00000  Uiso   1.00
Al3067 Al    0.62470   0.37500   0.87475   0.00000  Uiso   1.00
O3068  O     0.62500   0.40250   0.81100   0.00000  Uiso   1.00
O3069  O     0.64095   0.33175   0.86225   0.00000  Uiso   1.00
O3070  O     0.73438   0.29500   0.89000   0.00000  Uiso   1.00
O3071  O     0.64785   0.35025   0.79000   0.00000  Uiso   1.00
O3072  O     0.72890   0.28750   0.96575   0.00000  Uiso   1.00
C3073  C     0.65163   0.33025   0.83500   0.00000  Uiso   1.00
C3074  C     0.72340   0.29375   0.91625   0.00000  Uiso   1.00
C3075  C     0.67505   0.30575   0.90725   0.00000  Uiso   1.00
C3076  C     0.69910   0.31050   0.84250   0.00000  Uiso   1.00
C3077  C     0.69360   0.30000   0.92975   0.00000  Uiso   1.00
C3078  C     0.68115   0.32475   0.82200   0.00000  Uiso   1.00
C3079  C     0.67045   0.32225   0.85550   0.00000  Uiso   1.00
C3080  C     0.70510   0.30700   0.89750   0.00000  Uiso   1.00
Al3081 Al    0.99970   0.25000   0.99975   0.00000  Uiso   1.00
O3082  O     0.75000   0.47250   0.93600   0.00000  Uiso   1.00
O3083  O     0.76595   0.29325   0.98725   0.00000  Uiso   1.00
O3084  O     0.85938   0.33000   0.76500   0.00000  Uiso   1.00
O3085  O     0.77285   0.27475   0.91500   0.00000  Uiso   1.00
O3086  O     0.85390   0.33750   0.84075   0.00000  Uiso   1.00
C3087  C     0.77663   0.29475   0.96000   0.00000  Uiso   1.00
C3088  C     0.84840   0.33125   0.79125   0.00000  Uiso   1.00
C3089  C     0.80005   0.31925   0.78225   0.00000  Uiso   1.00
C3090  C     0.82410   0.31450   0.96750   0.00000  Uiso   1.00
C3091  C     0.81860   0.32500   0.80475   0.00000  Uiso   1.00
C3092  C     0.80615   0.30025   0.94700   0.00000  Uiso   1.00
C3093  C     0.79545   0.30275   0.98050   0.00000  Uiso   1.00
C3094  C     0.83010   0.31800   0.77250   0.00000  Uiso   1.00
Al3095 Al    0.87470   0.37500   0.99975   0.00000  Uiso   1.00
O3096  O     0.87500   0.34750   0.93600   0.00000  Uiso   1.00
O3097  O     0.89095   0.41825   0.98725   0.00000  Uiso   1.00
O3098  O     0.98438   0.45500   0.76500   0.00000  Uiso   1.00
O3099  O     0.89785   0.39975   0.91500   0.00000  Uiso   1.00
O3100  O     0.97890   0.46250   0.84075   0.00000  Uiso   1.00
C3101  C     0.90163   0.41975   0.96000   0.00000  Uiso   1.00
C3102  C     0.97340   0.45625   0.79125   0.00000  Uiso   1.00
C3103  C     0.92505   0.44425   0.78225   0.00000  Uiso   1.00
C3104  C     0.94910   0.43950   0.96750   0.00000  Uiso   1.00
C3105  C     0.94360   0.45000   0.80475   0.00000  Uiso   1.00
C3106  C     0.93115   0.42525   0.94700   0.00000  Uiso   1.00
C3107  C     0.92045   0.42775   0.98050   0.00000  Uiso   1.00
C3108  C     0.95510   0.44300   0.77250   0.00000  Uiso   1.00
Al3109 Al    0.99970   0.25000   0.87475   0.00000  Uiso   1.00
O3110  O     0.75000   0.27750   0.81100   0.00000  Uiso   1.00
O3111  O     0.76595   0.45675   0.86225   0.00000  Uiso   1.00
O3112  O     0.85938   0.42000   0.89000   0.00000  Uiso   1.00
O3113  O     0.77285   0.47525   0.79000   0.00000  Uiso   1.00
O3114  O     0.85390   0.41250   0.96575   0.00000  Uiso   1.00
C3115  C     0.77663   0.45525   0.83500   0.00000  Uiso   1.00
C3116  C     0.84840   0.41875   0.91625   0.00000  Uiso   1.00
C3117  C     0.80005   0.43075   0.90725   0.00000  Uiso   1.00
C3118  C     0.82410   0.43550   0.84250   0.00000  Uiso   1.00
C3119  C     0.81860   0.42500   0.92975   0.00000  Uiso   1.00
C3120  C     0.80615   0.44975   0.82200   0.00000  Uiso   1.00
C3121  C     0.79545   0.44725   0.85550   0.00000  Uiso   1.00
C3122  C     0.83010   0.43200   0.89750   0.00000  Uiso   1.00
Al3123 Al    0.87470   0.37500   0.87475   0.00000  Uiso   1.00
O3124  O     0.87500   0.40250   0.81100   0.00000  Uiso   1.00
O3125  O     0.89095   0.33175   0.86225   0.00000  Uiso   1.00
O3126  O     0.98438   0.29500   0.89000   0.00000  Uiso   1.00
O3127  O     0.89785   0.35025   0.79000   0.00000  Uiso   1.00
O3128  O     0.97890   0.28750   0.96575   0.00000  Uiso   1.00
C3129  C     0.90163   0.33025   0.83500   0.00000  Uiso   1.00
C3130  C     0.97340   0.29375   0.91625   0.00000  Uiso   1.00
C3131  C     0.92505   0.30575   0.90725   0.00000  Uiso   1.00
C3132  C     0.94910   0.31050   0.84250   0.00000  Uiso   1.00
C3133  C     0.94360   0.30000   0.92975   0.00000  Uiso   1.00
C3134  C     0.93115   0.32475   0.82200   0.00000  Uiso   1.00
C3135  C     0.92045   0.32225   0.85550   0.00000  Uiso   1.00
C3136  C     0.95510   0.30700   0.89750   0.00000  Uiso   1.00
Al3137 Al    0.24970   0.50000   0.99975   0.00000  Uiso   1.00
O3138  O     0.00000   0.72250   0.93600   0.00000  Uiso   1.00
O3139  O     0.01595   0.54325   0.98725   0.00000  Uiso   1.00
O3140  O     0.10938   0.58000   0.76500   0.00000  Uiso   1.00
O3141  O     0.02285   0.52475   0.91500   0.00000  Uiso   1.00
O3142  O     0.10390   0.58750   0.84075   0.00000  Uiso   1.00
C3143  C     0.02663   0.54475   0.96000   0.00000  Uiso   1.00
C3144  C     0.09840   0.58125   0.79125   0.00000  Uiso   1.00
C3145  C     0.05005   0.56925   0.78225   0.00000  Uiso   1.00
C3146  C     0.07410   0.56450   0.96750   0.00000  Uiso   1.00
C3147  C     0.06860   0.57500   0.80475   0.00000  Uiso   1.00
C3148  C     0.05615   0.55025   0.94700   0.00000  Uiso   1.00
C3149  C     0.04545   0.55275   0.98050   0.00000  Uiso   1.00
C3150  C     0.08010   0.56800   0.77250   0.00000  Uiso   1.00
Al3151 Al    0.12470   0.62500   0.99975   0.00000  Uiso   1.00
O3152  O     0.12500   0.59750   0.93600   0.00000  Uiso   1.00
O3153  O     0.14095   0.66825   0.98725   0.00000  Uiso   1.00
O3154  O     0.23438   0.70500   0.76500   0.00000  Uiso   1.00
O3155  O     0.14785   0.64975   0.91500   0.00000  Uiso   1.00
O3156  O     0.22890   0.71250   0.84075   0.00000  Uiso   1.00
C3157  C     0.15163   0.66975   0.96000   0.00000  Uiso   1.00
C3158  C     0.22340   0.70625   0.79125   0.00000  Uiso   1.00
C3159  C     0.17505   0.69425   0.78225   0.00000  Uiso   1.00
C3160  C     0.19910   0.68950   0.96750   0.00000  Uiso   1.00
C3161  C     0.19360   0.70000   0.80475   0.00000  Uiso   1.00
C3162  C     0.18115   0.67525   0.94700   0.00000  Uiso   1.00
C3163  C     0.17045   0.67775   0.98050   0.00000  Uiso   1.00
C3164  C     0.20510   0.69300   0.77250   0.00000  Uiso   1.00
Al3165 Al    0.24970   0.50000   0.87475   0.00000  Uiso   1.00
O3166  O     0.00000   0.52750   0.81100   0.00000  Uiso   1.00
O3167  O     0.01595   0.70675   0.86225   0.00000  Uiso   1.00
O3168  O     0.10938   0.67000   0.89000   0.00000  Uiso   1.00
O3169  O     0.02285   0.72525   0.79000   0.00000  Uiso   1.00
O3170  O     0.10390   0.66250   0.96575   0.00000  Uiso   1.00
C3171  C     0.02663   0.70525   0.83500   0.00000  Uiso   1.00
C3172  C     0.09840   0.66875   0.91625   0.00000  Uiso   1.00
C3173  C     0.05005   0.68075   0.90725   0.00000  Uiso   1.00
C3174  C     0.07410   0.68550   0.84250   0.00000  Uiso   1.00
C3175  C     0.06860   0.67500   0.92975   0.00000  Uiso   1.00
C3176  C     0.05615   0.69975   0.82200   0.00000  Uiso   1.00
C3177  C     0.04545   0.69725   0.85550   0.00000  Uiso   1.00
C3178  C     0.08010   0.68200   0.89750   0.00000  Uiso   1.00
Al3179 Al    0.12470   0.62500   0.87475   0.00000  Uiso   1.00
O3180  O     0.12500   0.65250   0.81100   0.00000  Uiso   1.00
O3181  O     0.14095   0.58175   0.86225   0.00000  Uiso   1.00
O3182  O     0.23438   0.54500   0.89000   0.00000  Uiso   1.00
O3183  O     0.14785   0.60025   0.79000   0.00000  Uiso   1.00
O3184  O     0.22890   0.53750   0.96575   0.00000  Uiso   1.00
C3185  C     0.15163   0.58025   0.83500   0.00000  Uiso   1.00
C3186  C     0.22340   0.54375   0.91625   0.00000  Uiso   1.00
C3187  C     0.17505   0.55575   0.90725   0.00000  Uiso   1.00
C3188  C     0.19910   0.56050   0.84250   0.00000  Uiso   1.00
C3189  C     0.19360   0.55000   0.92975   0.00000  Uiso   1.00
C3190  C     0.18115   0.57475   0.82200   0.00000  Uiso   1.00
C3191  C     0.17045   0.57225   0.85550   0.00000  Uiso   1.00
C3192  C     0.20510   0.55700   0.89750   0.00000  Uiso   1.00
Al3193 Al    0.49970   0.50000   0.99975   0.00000  Uiso   1.00
O3194  O     0.25000   0.72250   0.93600   0.00000  Uiso   1.00
O3195  O     0.26595   0.54325   0.98725   0.00000  Uiso   1.00
O3196  O     0.35938   0.58000   0.76500   0.00000  Uiso   1.00
O3197  O     0.27285   0.52475   0.91500   0.00000  Uiso   1.00
O3198  O     0.35390   0.58750   0.84075   0.00000  Uiso   1.00
C3199  C     0.27663   0.54475   0.96000   0.00000  Uiso   1.00
C3200  C     0.34840   0.58125   0.79125   0.00000  Uiso   1.00
C3201  C     0.30005   0.56925   0.78225   0.00000  Uiso   1.00
C3202  C     0.32410   0.56450   0.96750   0.00000  Uiso   1.00
C3203  C     0.31860   0.57500   0.80475   0.00000  Uiso   1.00
C3204  C     0.30615   0.55025   0.94700   0.00000  Uiso   1.00
C3205  C     0.29545   0.55275   0.98050   0.00000  Uiso   1.00
C3206  C     0.33010   0.56800   0.77250   0.00000  Uiso   1.00
Al3207 Al    0.37470   0.62500   0.99975   0.00000  Uiso   1.00
O3208  O     0.37500   0.59750   0.93600   0.00000  Uiso   1.00
O3209  O     0.39095   0.66825   0.98725   0.00000  Uiso   1.00
O3210  O     0.48438   0.70500   0.76500   0.00000  Uiso   1.00
O3211  O     0.39785   0.64975   0.91500   0.00000  Uiso   1.00
O3212  O     0.47890   0.71250   0.84075   0.00000  Uiso   1.00
C3213  C     0.40163   0.66975   0.96000   0.00000  Uiso   1.00
C3214  C     0.47340   0.70625   0.79125   0.00000  Uiso   1.00
C3215  C     0.42505   0.69425   0.78225   0.00000  Uiso   1.00
C3216  C     0.44910   0.68950   0.96750   0.00000  Uiso   1.00
C3217  C     0.44360   0.70000   0.80475   0.00000  Uiso   1.00
C3218  C     0.43115   0.67525   0.94700   0.00000  Uiso   1.00
C3219  C     0.42045   0.67775   0.98050   0.00000  Uiso   1.00
C3220  C     0.45510   0.69300   0.77250   0.00000  Uiso   1.00
Al3221 Al    0.49970   0.50000   0.87475   0.00000  Uiso   1.00
O3222  O     0.25000   0.52750   0.81100   0.00000  Uiso   1.00
O3223  O     0.26595   0.70675   0.86225   0.00000  Uiso   1.00
O3224  O     0.35938   0.67000   0.89000   0.00000  Uiso   1.00
O3225  O     0.27285   0.72525   0.79000   0.00000  Uiso   1.00
O3226  O     0.35390   0.66250   0.96575   0.00000  Uiso   1.00
C3227  C     0.27663   0.70525   0.83500   0.00000  Uiso   1.00
C3228  C     0.34840   0.66875   0.91625   0.00000  Uiso   1.00
C3229  C     0.30005   0.68075   0.90725   0.00000  Uiso   1.00
C3230  C     0.32410   0.68550   0.84250   0.00000  Uiso   1.00
C3231  C     0.31860   0.67500   0.92975   0.00000  Uiso   1.00
C3232  C     0.30615   0.69975   0.82200   0.00000  Uiso   1.00
C3233  C     0.29545   0.69725   0.85550   0.00000  Uiso   1.00
C3234  C     0.33010   0.68200   0.89750   0.00000  Uiso   1.00
Al3235 Al    0.37470   0.62500   0.87475   0.00000  Uiso   1.00
O3236  O     0.37500   0.65250   0.81100   0.00000  Uiso   1.00
O3237  O     0.39095   0.58175   0.86225   0.00000  Uiso   1.00
O3238  O     0.48438   0.54500   0.89000   0.00000  Uiso   1.00
O3239  O     0.39785   0.60025   0.79000   0.00000  Uiso   1.00
O3240  O     0.47890   0.53750   0.96575   0.00000  Uiso   1.00
C3241  C     0.40163   0.58025   0.83500   0.00000  Uiso   1.00
C3242  C     0.47340   0.54375   0.91625   0.00000  Uiso   1.00
C3243  C     0.42505   0.55575   0.90725   0.00000  Uiso   1.00
C3244  C     0.44910   0.56050   0.84250   0.00000  Uiso   1.00
C3245  C     0.44360   0.55000   0.92975   0.00000  Uiso   1.00
C3246  C     0.43115   0.57475   0.82200   0.00000  Uiso   1.00
C3247  C     0.42045   0.57225   0.85550   0.00000  Uiso   1.00
C3248  C     0.45510   0.55700   0.89750   0.00000  Uiso   1.00
Al3249 Al    0.74970   0.50000   0.99975   0.00000  Uiso   1.00
O3250  O     0.50000   0.72250   0.93600   0.00000  Uiso   1.00
O3251  O     0.51595   0.54325   0.98725   0.00000  Uiso   1.00
O3252  O     0.60938   0.58000   0.76500   0.00000  Uiso   1.00
O3253  O     0.52285   0.52475   0.91500   0.00000  Uiso   1.00
O3254  O     0.60390   0.58750   0.84075   0.00000  Uiso   1.00
C3255  C     0.52663   0.54475   0.96000   0.00000  Uiso   1.00
C3256  C     0.59840   0.58125   0.79125   0.00000  Uiso   1.00
C3257  C     0.55005   0.56925   0.78225   0.00000  Uiso   1.00
C3258  C     0.57410   0.56450   0.96750   0.00000  Uiso   1.00
C3259  C     0.56860   0.57500   0.80475   0.00000  Uiso   1.00
C3260  C     0.55615   0.55025   0.94700   0.00000  Uiso   1.00
C3261  C     0.54545   0.55275   0.98050   0.00000  Uiso   1.00
C3262  C     0.58010   0.56800   0.77250   0.00000  Uiso   1.00
Al3263 Al    0.62470   0.62500   0.99975   0.00000  Uiso   1.00
O3264  O     0.62500   0.59750   0.93600   0.00000  Uiso   1.00
O3265  O     0.64095   0.66825   0.98725   0.00000  Uiso   1.00
O3266  O     0.73438   0.70500   0.76500   0.00000  Uiso   1.00
O3267  O     0.64785   0.64975   0.91500   0.00000  Uiso   1.00
O3268  O     0.72890   0.71250   0.84075   0.00000  Uiso   1.00
C3269  C     0.65163   0.66975   0.96000   0.00000  Uiso   1.00
C3270  C     0.72340   0.70625   0.79125   0.00000  Uiso   1.00
C3271  C     0.67505   0.69425   0.78225   0.00000  Uiso   1.00
C3272  C     0.69910   0.68950   0.96750   0.00000  Uiso   1.00
C3273  C     0.69360   0.70000   0.80475   0.00000  Uiso   1.00
C3274  C     0.68115   0.67525   0.94700   0.00000  Uiso   1.00
C3275  C     0.67045   0.67775   0.98050   0.00000  Uiso   1.00
C3276  C     0.70510   0.69300   0.77250   0.00000  Uiso   1.00
Al3277 Al    0.74970   0.50000   0.87475   0.00000  Uiso   1.00
O3278  O     0.50000   0.52750   0.81100   0.00000  Uiso   1.00
O3279  O     0.51595   0.70675   0.86225   0.00000  Uiso   1.00
O3280  O     0.60938   0.67000   0.89000   0.00000  Uiso   1.00
O3281  O     0.52285   0.72525   0.79000   0.00000  Uiso   1.00
O3282  O     0.60390   0.66250   0.96575   0.00000  Uiso   1.00
C3283  C     0.52663   0.70525   0.83500   0.00000  Uiso   1.00
C3284  C     0.59840   0.66875   0.91625   0.00000  Uiso   1.00
C3285  C     0.55005   0.68075   0.90725   0.00000  Uiso   1.00
C3286  C     0.57410   0.68550   0.84250   0.00000  Uiso   1.00
C3287  C     0.56860   0.67500   0.92975   0.00000  Uiso   1.00
C3288  C     0.55615   0.69975   0.82200   0.00000  Uiso   1.00
C3289  C     0.54545   0.69725   0.85550   0.00000  Uiso   1.00
C3290  C     0.58010   0.68200   0.89750   0.00000  Uiso   1.00
Al3291 Al    0.62470   0.62500   0.87475   0.00000  Uiso   1.00
O3292  O     0.62500   0.65250   0.81100   0.00000  Uiso   1.00
O3293  O     0.64095   0.58175   0.86225   0.00000  Uiso   1.00
O3294  O     0.73438   0.54500   0.89000   0.00000  Uiso   1.00
O3295  O     0.64785   0.60025   0.79000   0.00000  Uiso   1.00
O3296  O     0.72890   0.53750   0.96575   0.00000  Uiso   1.00
C3297  C     0.65163   0.58025   0.83500   0.00000  Uiso   1.00
C3298  C     0.72340   0.54375   0.91625   0.00000  Uiso   1.00
C3299  C     0.67505   0.55575   0.90725   0.00000  Uiso   1.00
C3300  C     0.69910   0.56050   0.84250   0.00000  Uiso   1.00
C3301  C     0.69360   0.55000   0.92975   0.00000  Uiso   1.00
C3302  C     0.68115   0.57475   0.82200   0.00000  Uiso   1.00
C3303  C     0.67045   0.57225   0.85550   0.00000  Uiso   1.00
C3304  C     0.70510   0.55700   0.89750   0.00000  Uiso   1.00
Al3305 Al    0.99970   0.50000   0.99975   0.00000  Uiso   1.00
O3306  O     0.75000   0.72250   0.93600   0.00000  Uiso   1.00
O3307  O     0.76595   0.54325   0.98725   0.00000  Uiso   1.00
O3308  O     0.85938   0.58000   0.76500   0.00000  Uiso   1.00
O3309  O     0.77285   0.52475   0.91500   0.00000  Uiso   1.00
O3310  O     0.85390   0.58750   0.84075   0.00000  Uiso   1.00
C3311  C     0.77663   0.54475   0.96000   0.00000  Uiso   1.00
C3312  C     0.84840   0.58125   0.79125   0.00000  Uiso   1.00
C3313  C     0.80005   0.56925   0.78225   0.00000  Uiso   1.00
C3314  C     0.82410   0.56450   0.96750   0.00000  Uiso   1.00
C3315  C     0.81860   0.57500   0.80475   0.00000  Uiso   1.00
C3316  C     0.80615   0.55025   0.94700   0.00000  Uiso   1.00
C3317  C     0.79545   0.55275   0.98050   0.00000  Uiso   1.00
C3318  C     0.83010   0.56800   0.77250   0.00000  Uiso   1.00
Al3319 Al    0.87470   0.62500   0.99975   0.00000  Uiso   1.00
O3320  O     0.87500   0.59750   0.93600   0.00000  Uiso   1.00
O3321  O     0.89095   0.66825   0.98725   0.00000  Uiso   1.00
O3322  O     0.98438   0.70500   0.76500   0.00000  Uiso   1.00
O3323  O     0.89785   0.64975   0.91500   0.00000  Uiso   1.00
O3324  O     0.97890   0.71250   0.84075   0.00000  Uiso   1.00
C3325  C     0.90163   0.66975   0.96000   0.00000  Uiso   1.00
C3326  C     0.97340   0.70625   0.79125   0.00000  Uiso   1.00
C3327  C     0.92505   0.69425   0.78225   0.00000  Uiso   1.00
C3328  C     0.94910   0.68950   0.96750   0.00000  Uiso   1.00
C3329  C     0.94360   0.70000   0.80475   0.00000  Uiso   1.00
C3330  C     0.93115   0.67525   0.94700   0.00000  Uiso   1.00
C3331  C     0.92045   0.67775   0.98050   0.00000  Uiso   1.00
C3332  C     0.95510   0.69300   0.77250   0.00000  Uiso   1.00
Al3333 Al    0.99970   0.50000   0.87475   0.00000  Uiso   1.00
O3334  O     0.75000   0.52750   0.81100   0.00000  Uiso   1.00
O3335  O     0.76595   0.70675   0.86225   0.00000  Uiso   1.00
O3336  O     0.85938   0.67000   0.89000   0.00000  Uiso   1.00
O3337  O     0.77285   0.72525   0.79000   0.00000  Uiso   1.00
O3338  O     0.85390   0.66250   0.96575   0.00000  Uiso   1.00
C3339  C     0.77663   0.70525   0.83500   0.00000  Uiso   1.00
C3340  C     0.84840   0.66875   0.91625   0.00000  Uiso   1.00
C3341  C     0.80005   0.68075   0.90725   0.00000  Uiso   1.00
C3342  C     0.82410   0.68550   0.84250   0.00000  Uiso   1.00
C3343  C     0.81860   0.67500   0.92975   0.00000  Uiso   1.00
C3344  C     0.80615   0.69975   0.82200   0.00000  Uiso   1.00
C3345  C     0.79545   0.69725   0.85550   0.00000  Uiso   1.00
C3346  C     0.83010   0.68200   0.89750   0.00000  Uiso   1.00
Al3347 Al    0.87470   0.62500   0.87475   0.00000  Uiso   1.00
O3348  O     0.87500   0.65250   0.81100   0.00000  Uiso   1.00
O3349  O     0.89095   0.58175   0.86225   0.00000  Uiso   1.00
O3350  O     0.98438   0.54500   0.89000   0.00000  Uiso   1.00
O3351  O     0.89785   0.60025   0.79000   0.00000  Uiso   1.00
O3352  O     0.97890   0.53750   0.96575   0.00000  Uiso   1.00
C3353  C     0.90163   0.58025   0.83500   0.00000  Uiso   1.00
C3354  C     0.97340   0.54375   0.91625   0.00000  Uiso   1.00
C3355  C     0.92505   0.55575   0.90725   0.00000  Uiso   1.00
C3356  C     0.94910   0.56050   0.84250   0.00000  Uiso   1.00
C3357  C     0.94360   0.55000   0.92975   0.00000  Uiso   1.00
C3358  C     0.93115   0.57475   0.82200   0.00000  Uiso   1.00
C3359  C     0.92045   0.57225   0.85550   0.00000  Uiso   1.00
C3360  C     0.95510   0.55700   0.89750   0.00000  Uiso   1.00
Al3361 Al    0.24970   0.75000   0.99975   0.00000  Uiso   1.00
O3362  O     0.00000   0.97250   0.93600   0.00000  Uiso   1.00
O3363  O     0.01595   0.79325   0.98725   0.00000  Uiso   1.00
O3364  O     0.10938   0.83000   0.76500   0.00000  Uiso   1.00
O3365  O     0.02285   0.77475   0.91500   0.00000  Uiso   1.00
O3366  O     0.10390   0.83750   0.84075   0.00000  Uiso   1.00
C3367  C     0.02663   0.79475   0.96000   0.00000  Uiso   1.00
C3368  C     0.09840   0.83125   0.79125   0.00000  Uiso   1.00
C3369  C     0.05005   0.81925   0.78225   0.00000  Uiso   1.00
C3370  C     0.07410   0.81450   0.96750   0.00000  Uiso   1.00
C3371  C     0.06860   0.82500   0.80475   0.00000  Uiso   1.00
C3372  C     0.05615   0.80025   0.94700   0.00000  Uiso   1.00
C3373  C     0.04545   0.80275   0.98050   0.00000  Uiso   1.00
C3374  C     0.08010   0.81800   0.77250   0.00000  Uiso   1.00
Al3375 Al    0.12470   0.87500   0.99975   0.00000  Uiso   1.00
O3376  O     0.12500   0.84750   0.93600   0.00000  Uiso   1.00
O3377  O     0.14095   0.91825   0.98725   0.00000  Uiso   1.00
O3378  O     0.23438   0.95500   0.76500   0.00000  Uiso   1.00
O3379  O     0.14785   0.89975   0.91500   0.00000  Uiso   1.00
O3380  O     0.22890   0.96250   0.84075   0.00000  Uiso   1.00
C3381  C     0.15163   0.91975   0.96000   0.00000  Uiso   1.00
C3382  C     0.22340   0.95625   0.79125   0.00000  Uiso   1.00
C3383  C     0.17505   0.94425   0.78225   0.00000  Uiso   1.00
C3384  C     0.19910   0.93950   0.96750   0.00000  Uiso   1.00
C3385  C     0.19360   0.95000   0.80475   0.00000  Uiso   1.00
C3386  C     0.18115   0.92525   0.94700   0.00000  Uiso   1.00
C3387  C     0.17045   0.92775   0.98050   0.00000  Uiso   1.00
C3388  C     0.20510   0.94300   0.77250   0.00000  Uiso   1.00
Al3389 Al    0.24970   0.75000   0.87475   0.00000  Uiso   1.00
O3390  O     0.00000   0.77750   0.81100   0.00000  Uiso   1.00
O3391  O     0.01595   0.95675   0.86225   0.00000  Uiso   1.00
O3392  O     0.10938   0.92000   0.89000   0.00000  Uiso   1.00
O3393  O     0.02285   0.97525   0.79000   0.00000  Uiso   1.00
O3394  O     0.10390   0.91250   0.96575   0.00000  Uiso   1.00
C3395  C     0.02663   0.95525   0.83500   0.00000  Uiso   1.00
C3396  C     0.09840   0.91875   0.91625   0.00000  Uiso   1.00
C3397  C     0.05005   0.93075   0.90725   0.00000  Uiso   1.00
C3398  C     0.07410   0.93550   0.84250   0.00000  Uiso   1.00
C3399  C     0.06860   0.92500   0.92975   0.00000  Uiso   1.00
C3400  C     0.05615   0.94975   0.82200   0.00000  Uiso   1.00
C3401  C     0.04545   0.94725   0.85550   0.00000  Uiso   1.00
C3402  C     0.08010   0.93200   0.89750   0.00000  Uiso   1.00
Al3403 Al    0.12470   0.87500   0.87475   0.00000  Uiso   1.00
O3404  O     0.12500   0.90250   0.81100   0.00000  Uiso   1.00
O3405  O     0.14095   0.83175   0.86225   0.00000  Uiso   1.00
O3406  O     0.23438   0.79500   0.89000   0.00000  Uiso   1.00
O3407  O     0.14785   0.85025   0.79000   0.00000  Uiso   1.00
O3408  O     0.22890   0.78750   0.96575   0.00000  Uiso   1.00
C3409  C     0.15163   0.83025   0.83500   0.00000  Uiso   1.00
C3410  C     0.22340   0.79375   0.91625   0.00000  Uiso   1.00
C3411  C     0.17505   0.80575   0.90725   0.00000  Uiso   1.00
C3412  C     0.19910   0.81050   0.84250   0.00000  Uiso   1.00
C3413  C     0.19360   0.80000   0.92975   0.00000  Uiso   1.00
C3414  C     0.18115   0.82475   0.82200   0.00000  Uiso   1.00
C3415  C     0.17045   0.82225   0.85550   0.00000  Uiso   1.00
C3416  C     0.20510   0.80700   0.89750   0.00000  Uiso   1.00
Al3417 Al    0.49970   0.75000   0.99975   0.00000  Uiso   1.00
O3418  O     0.25000   0.97250   0.93600   0.00000  Uiso   1.00
O3419  O     0.26595   0.79325   0.98725   0.00000  Uiso   1.00
O3420  O     0.35938   0.83000   0.76500   0.00000  Uiso   1.00
O3421  O     0.27285   0.77475   0.91500   0.00000  Uiso   1.00
O3422  O     0.35390   0.83750   0.84075   0.00000  Uiso   1.00
C3423  C     0.27663   0.79475   0.96000   0.00000  Uiso   1.00
C3424  C     0.34840   0.83125   0.79125   0.00000  Uiso   1.00
C3425  C     0.30005   0.81925   0.78225   0.00000  Uiso   1.00
C3426  C     0.32410   0.81450   0.96750   0.00000  Uiso   1.00
C3427  C     0.31860   0.82500   0.80475   0.00000  Uiso   1.00
C3428  C     0.30615   0.80025   0.94700   0.00000  Uiso   1.00
C3429  C     0.29545   0.80275   0.98050   0.00000  Uiso   1.00
C3430  C     0.33010   0.81800   0.77250   0.00000  Uiso   1.00
Al3431 Al    0.37470   0.87500   0.99975   0.00000  Uiso   1.00
O3432  O     0.37500   0.84750   0.93600   0.00000  Uiso   1.00
O3433  O     0.39095   0.91825   0.98725   0.00000  Uiso   1.00
O3434  O     0.48438   0.95500   0.76500   0.00000  Uiso   1.00
O3435  O     0.39785   0.89975   0.91500   0.00000  Uiso   1.00
O3436  O     0.47890   0.96250   0.84075   0.00000  Uiso   1.00
C3437  C     0.40163   0.91975   0.96000   0.00000  Uiso   1.00
C3438  C     0.47340   0.95625   0.79125   0.00000  Uiso   1.00
C3439  C     0.42505   0.94425   0.78225   0.00000  Uiso   1.00
C3440  C     0.44910   0.93950   0.96750   0.00000  Uiso   1.00
C3441  C     0.44360   0.95000   0.80475   0.00000  Uiso   1.00
C3442  C     0.43115   0.92525   0.94700   0.00000  Uiso   1.00
C3443  C     0.42045   0.92775   0.98050   0.00000  Uiso   1.00
C3444  C     0.45510   0.94300   0.77250   0.00000  Uiso   1.00
Al3445 Al    0.49970   0.75000   0.87475   0.00000  Uiso   1.00
O3446  O     0.25000   0.77750   0.81100   0.00000  Uiso   1.00
O3447  O     0.26595   0.95675   0.86225   0.00000  Uiso   1.00
O3448  O     0.35938   0.92000   0.89000   0.00000  Uiso   1.00
O3449  O     0.27285   0.97525   0.79000   0.00000  Uiso   1.00
O3450  O     0.35390   0.91250   0.96575   0.00000  Uiso   1.00
C3451  C     0.27663   0.95525   0.83500   0.00000  Uiso   1.00
C3452  C     0.34840   0.91875   0.91625   0.00000  Uiso   1.00
C3453  C     0.30005   0.93075   0.90725   0.00000  Uiso   1.00
C3454  C     0.32410   0.93550   0.84250   0.00000  Uiso   1.00
C3455  C     0.31860   0.92500   0.92975   0.00000  Uiso   1.00
C3456  C     0.30615   0.94975   0.82200   0.00000  Uiso   1.00
C3457  C     0.29545   0.94725   0.85550   0.00000  Uiso   1.00
C3458  C     0.33010   0.93200   0.89750   0.00000  Uiso   1.00
Al3459 Al    0.37470   0.87500   0.87475   0.00000  Uiso   1.00
O3460  O     0.37500   0.90250   0.81100   0.00000  Uiso   1.00
O3461  O     0.39095   0.83175   0.86225   0.00000  Uiso   1.00
O3462  O     0.48438   0.79500   0.89000   0.00000  Uiso   1.00
O3463  O     0.39785   0.85025   0.79000   0.00000  Uiso   1.00
O3464  O     0.47890   0.78750   0.96575   0.00000  Uiso   1.00
C3465  C     0.40163   0.83025   0.83500   0.00000  Uiso   1.00
C3466  C     0.47340   0.79375   0.91625   0.00000  Uiso   1.00
C3467  C     0.42505   0.80575   0.90725   0.00000  Uiso   1.00
C3468  C     0.44910   0.81050   0.84250   0.00000  Uiso   1.00
C3469  C     0.44360   0.80000   0.92975   0.00000  Uiso   1.00
C3470  C     0.43115   0.82475   0.82200   0.00000  Uiso   1.00
C3471  C     0.42045   0.82225   0.85550   0.00000  Uiso   1.00
C3472  C     0.45510   0.80700   0.89750   0.00000  Uiso   1.00
Al3473 Al    0.74970   0.75000   0.99975   0.00000  Uiso   1.00
O3474  O     0.50000   0.97250   0.93600   0.00000  Uiso   1.00
O3475  O     0.51595   0.79325   0.98725   0.00000  Uiso   1.00
O3476  O     0.60938   0.83000   0.76500   0.00000  Uiso   1.00
O3477  O     0.52285   0.77475   0.91500   0.00000  Uiso   1.00
O3478  O     0.60390   0.83750   0.84075   0.00000  Uiso   1.00
C3479  C     0.52663   0.79475   0.96000   0.00000  Uiso   1.00
C3480  C     0.59840   0.83125   0.79125   0.00000  Uiso   1.00
C3481  C     0.55005   0.81925   0.78225   0.00000  Uiso   1.00
C3482  C     0.57410   0.81450   0.96750   0.00000  Uiso   1.00
C3483  C     0.56860   0.82500   0.80475   0.00000  Uiso   1.00
C3484  C     0.55615   0.80025   0.94700   0.00000  Uiso   1.00
C3485  C     0.54545   0.80275   0.98050   0.00000  Uiso   1.00
C3486  C     0.58010   0.81800   0.77250   0.00000  Uiso   1.00
Al3487 Al    0.62470   0.87500   0.99975   0.00000  Uiso   1.00
O3488  O     0.62500   0.84750   0.93600   0.00000  Uiso   1.00
O3489  O     0.64095   0.91825   0.98725   0.00000  Uiso   1.00
O3490  O     0.73438   0.95500   0.76500   0.00000  Uiso   1.00
O3491  O     0.64785   0.89975   0.91500   0.00000  Uiso   1.00
O3492  O     0.72890   0.96250   0.84075   0.00000  Uiso   1.00
C3493  C     0.65163   0.91975   0.96000   0.00000  Uiso   1.00
C3494  C     0.72340   0.95625   0.79125   0.00000  Uiso   1.00
C3495  C     0.67505   0.94425   0.78225   0.00000  Uiso   1.00
C3496  C     0.69910   0.93950   0.96750   0.00000  Uiso   1.00
C3497  C     0.69360   0.95000   0.80475   0.00000  Uiso   1.00
C3498  C     0.68115   0.92525   0.94700   0.00000  Uiso   1.00
C3499  C     0.67045   0.92775   0.98050   0.00000  Uiso   1.00
C3500  C     0.70510   0.94300   0.77250   0.00000  Uiso   1.00
Al3501 Al    0.74970   0.75000   0.87475   0.00000  Uiso   1.00
O3502  O     0.50000   0.77750   0.81100   0.00000  Uiso   1.00
O3503  O     0.51595   0.95675   0.86225   0.00000  Uiso   1.00
O3504  O     0.60938   0.92000   0.89000   0.00000  Uiso   1.00
O3505  O     0.52285   0.97525   0.79000   0.00000  Uiso   1.00
O3506  O     0.60390   0.91250   0.96575   0.00000  Uiso   1.00
C3507  C     0.52663   0.95525   0.83500   0.00000  Uiso   1.00
C3508  C     0.59840   0.91875   0.91625   0.00000  Uiso   1.00
C3509  C     0.55005   0.93075   0.90725   0.00000  Uiso   1.00
C3510  C     0.57410   0.93550   0.84250   0.00000  Uiso   1.00
C3511  C     0.56860   0.92500   0.92975   0.00000  Uiso   1.00
C3512  C     0.55615   0.94975   0.82200   0.00000  Uiso   1.00
C3513  C     0.54545   0.94725   0.85550   0.00000  Uiso   1.00
C3514  C     0.58010   0.93200   0.89750   0.00000  Uiso   1.00
Al3515 Al    0.62470   0.87500   0.87475   0.00000  Uiso   1.00
O3516  O     0.62500   0.90250   0.81100   0.00000  Uiso   1.00
O3517  O     0.64095   0.83175   0.86225   0.00000  Uiso   1.00
O3518  O     0.73438   0.79500   0.89000   0.00000  Uiso   1.00
O3519  O     0.64785   0.85025   0.79000   0.00000  Uiso   1.00
O3520  O     0.72890   0.78750   0.96575   0.00000  Uiso   1.00
C3521  C     0.65163   0.83025   0.83500   0.00000  Uiso   1.00
C3522  C     0.72340   0.79375   0.91625   0.00000  Uiso   1.00
C3523  C     0.67505   0.80575   0.90725   0.00000  Uiso   1.00
C3524  C     0.69910   0.81050   0.84250   0.00000  Uiso   1.00
C3525  C     0.69360   0.80000   0.92975   0.00000  Uiso   1.00
C3526  C     0.68115   0.82475   0.82200   0.00000  Uiso   1.00
C3527  C     0.67045   0.82225   0.85550   0.00000  Uiso   1.00
C3528  C     0.70510   0.80700   0.89750   0.00000  Uiso   1.00
Al3529 Al    0.99970   0.75000   0.99975   0.00000  Uiso   1.00
O3530  O     0.75000   0.97250   0.93600   0.00000  Uiso   1.00
O3531  O     0.76595   0.79325   0.98725   0.00000  Uiso   1.00
O3532  O     0.85938   0.83000   0.76500   0.00000  Uiso   1.00
O3533  O     0.77285   0.77475   0.91500   0.00000  Uiso   1.00
O3534  O     0.85390   0.83750   0.84075   0.00000  Uiso   1.00
C3535  C     0.77663   0.79475   0.96000   0.00000  Uiso   1.00
C3536  C     0.84840   0.83125   0.79125   0.00000  Uiso   1.00
C3537  C     0.80005   0.81925   0.78225   0.00000  Uiso   1.00
C3538  C     0.82410   0.81450   0.96750   0.00000  Uiso   1.00
C3539  C     0.81860   0.82500   0.80475   0.00000  Uiso   1.00
C3540  C     0.80615   0.80025   0.94700   0.00000  Uiso   1.00
C3541  C     0.79545   0.80275   0.98050   0.00000  Uiso   1.00
C3542  C     0.83010   0.81800   0.77250   0.00000  Uiso   1.00
Al3543 Al    0.87470   0.87500   0.99975   0.00000  Uiso   1.00
O3544  O     0.87500   0.84750   0.93600   0.00000  Uiso   1.00
O3545  O     0.89095   0.91825   0.98725   0.00000  Uiso   1.00
O3546  O     0.98438   0.95500   0.76500   0.00000  Uiso   1.00
O3547  O     0.89785   0.89975   0.91500   0.00000  Uiso   1.00
O3548  O     0.97890   0.96250   0.84075   0.00000  Uiso   1.00
C3549  C     0.90163   0.91975   0.96000   0.00000  Uiso   1.00
C3550  C     0.97340   0.95625   0.79125   0.00000  Uiso   1.00
C3551  C     0.92505   0.94425   0.78225   0.00000  Uiso   1.00
C3552  C     0.94910   0.93950   0.96750   0.00000  Uiso   1.00
C3553  C     0.94360   0.95000   0.80475   0.00000  Uiso   1.00
C3554  C     0.93115   0.92525   0.94700   0.00000  Uiso   1.00
C3555  C     0.92045   0.92775   0.98050   0.00000  Uiso   1.00
C3556  C     0.95510   0.94300   0.77250   0.00000  Uiso   1.00
Al3557 Al    0.99970   0.75000   0.87475   0.00000  Uiso   1.00
O3558  O     0.75000   0.77750   0.81100   0.00000  Uiso   1.00
O3559  O     0.76595   0.95675   0.86225   0.00000  Uiso   1.00
O3560  O     0.85938   0.92000   0.89000   0.00000  Uiso   1.00
O3561  O     0.77285   0.97525   0.79000   0.00000  Uiso   1.00
O3562  O     0.85390   0.91250   0.96575   0.00000  Uiso   1.00
C3563  C     0.77663   0.95525   0.83500   0.00000  Uiso   1.00
C3564  C     0.84840   0.91875   0.91625   0.00000  Uiso   1.00
C3565  C     0.80005   0.93075   0.90725   0.00000  Uiso   1.00
C3566  C     0.82410   0.93550   0.84250   0.00000  Uiso   1.00
C3567  C     0.81860   0.92500   0.92975   0.00000  Uiso   1.00
C3568  C     0.80615   0.94975   0.82200   0.00000  Uiso   1.00
C3569  C     0.79545   0.94725   0.85550   0.00000  Uiso   1.00
C3570  C     0.83010   0.93200   0.89750   0.00000  Uiso   1.00
Al3571 Al    0.87470   0.87500   0.87475   0.00000  Uiso   1.00
O3572  O     0.87500   0.90250   0.81100   0.00000  Uiso   1.00
O3573  O     0.89095   0.83175   0.86225   0.00000  Uiso   1.00
O3574  O     0.98438   0.79500   0.89000   0.00000  Uiso   1.00
O3575  O     0.89785   0.85025   0.79000   0.00000  Uiso   1.00
O3576  O     0.97890   0.78750   0.96575   0.00000  Uiso   1.00
C3577  C     0.90163   0.83025   0.83500   0.00000  Uiso   1.00
C3578  C     0.97340   0.79375   0.91625   0.00000  Uiso   1.00
C3579  C     0.92505   0.80575   0.90725   0.00000  Uiso   1.00
C3580  C     0.94910   0.81050   0.84250   0.00000  Uiso   1.00
C3581  C     0.94360   0.80000   0.92975   0.00000  Uiso   1.00
C3582  C     0.93115   0.82475   0.82200   0.00000  Uiso   1.00
C3583  C     0.92045   0.82225   0.85550   0.00000  Uiso   1.00
C3584  C     0.95510   0.80700   0.89750   0.00000  Uiso   1.00
loop_
_geom_bond_atom_site_label_1
_geom_bond_atom_site_label_2
_geom_bond_distance
_geom_bond_site_symmetry_2
_ccdc_geom_bond_type
Al1    O730    1.880   1_545 S
Al1    O59     1.912   .     S
Al1    O48     2.006   .     S
Al1    O1586   1.925   1_545 S
Al1    O1657   2.003   1_545 S
Al1    O982    1.811   .     S
O2     Al393   1.880   1_455 S
O2     Al421   1.811   1_455 S
O3     Al169   1.912   1_455 S
O3     C7      1.226   .     S
O4     C8      1.226   .     D
O4     Al2703  1.925   1_554 S
O5     C7      1.299   .     D
O5     Al197   2.003   1_455 S
O6     C8      1.281   .     S
O6     Al43    2.006   .     S
C7     C13     1.456   .     S
C8     C14     1.449   .     S
C9     C11     1.434   .     D
C9     C2701   1.412   1_554 D
C10    C12     1.439   .     T
C10    C910    1.411   .     S
C11    C14     1.395   .     D
C12    C13     1.357   .     S
C13    C905    1.412   .     D
C14    C2698   1.411   1_554 S
Al15   O16     1.880   .     S
Al15   O17     1.912   .     S
Al15   O34     2.006   .     S
Al15   O900    1.925   .     S
Al15   O943    2.003   .     S
Al15   O940    1.811   .     S
O16    Al43    1.811   .     S
O17    C21     1.226   .     S
O18    C22     1.226   .     D
O18    Al2913  1.925   1_554 S
O19    C21     1.299   .     D
O19    Al43    2.003   .     S
O20    C22     1.281   .     S
O20    Al253   2.006   .     S
C21    C27     1.456   .     S
C22    C28     1.449   .     S
C23    C25     1.434   .     D
C23    C2715   1.412   1_554 D
C24    C26     1.439   .     T
C24    C924    1.411   .     S
C25    C28     1.395   .     D
C26    C27     1.357   .     S
C27    C919    1.412   .     D
C28    C2712   1.411   1_554 S
Al29   O86     1.880   .     S
Al29   O759    1.912   1_545 S
Al29   O692    2.006   1_545 S
Al29   O46     1.925   .     S
Al29   O61     2.003   .     S
Al29   O730    1.811   1_545 S
O30    Al197   1.880   1_455 S
O30    Al2857  1.811   1_454 S
O31    Al421   1.912   1_455 S
O31    C35     1.226   .     S
O32    C36     1.226   .     D
O32    Al43    1.925   .     S
O33    C35     1.299   .     D
O33    Al3081  2.003   1_454 S
O34    C36     1.281   .     S
C35    C41     1.456   .     S
C36    C42     1.449   .     S
C37    C39     1.434   .     D
C37    C41     1.412   .     D
C38    C40     1.439   .     T
C38    C42     1.411   .     S
C39    C42     1.395   .     D
C40    C41     1.357   .     S
Al43   O44     1.880   .     S
Al43   O45     1.912   .     S
O44    Al2703  1.811   1_554 S
O45    C49     1.226   .     S
O46    C50     1.226   .     D
O47    C49     1.299   .     D
O47    Al2703  2.003   1_554 S
O48    C50     1.281   .     S
C49    C55     1.456   .     S
C50    C56     1.449   .     S
C51    C53     1.434   .     D
C51    C55     1.412   .     D
C52    C54     1.439   .     T
C52    C56     1.411   .     S
C53    C56     1.395   .     D
C54    C55     1.357   .     S
Al57   O786    1.880   1_545 S
Al57   O115    1.912   .     S
Al57   O104    2.006   .     S
Al57   O1642   1.925   1_545 S
Al57   O1713   2.003   1_545 S
Al57   O1038   1.811   .     S
O58    Al225   1.880   .     S
O58    Al253   1.811   .     S
O59    C63     1.226   .     S
O60    C64     1.226   .     D
O60    Al2759  1.925   1_554 S
O61    C63     1.299   .     D
O62    C64     1.281   .     S
O62    Al99    2.006   .     S
C63    C69     1.456   .     S
C64    C70     1.449   .     S
C65    C67     1.434   .     D
C65    C2757   1.412   1_554 D
C66    C68     1.439   .     T
C66    C966    1.411   .     S
C67    C70     1.395   .     D
C68    C69     1.357   .     S
C69    C961    1.412   .     D
C70    C2754   1.411   1_554 S
Al71   O72     1.880   .     S
Al71   O73     1.912   .     S
Al71   O90     2.006   .     S
Al71   O956    1.925   .     S
Al71   O999    2.003   .     S
Al71   O996    1.811   .     S
O72    Al99    1.811   .     S
O73    C77     1.226   .     S
O74    C78     1.226   .     D
O74    Al2969  1.925   1_554 S
O75    C77     1.299   .     D
O75    Al99    2.003   .     S
O76    C78     1.281   .     S
O76    Al309   2.006   .     S
C77    C83     1.456   .     S
C78    C84     1.449   .     S
C79    C81     1.434   .     D
C79    C2771   1.412   1_554 D
C80    C82     1.439   .     T
C80    C980    1.411   .     S
C81    C84     1.395   .     D
C82    C83     1.357   .     S
C83    C975    1.412   .     D
C84    C2768   1.411   1_554 S
Al85   O142    1.880   .     S
Al85   O815    1.912   1_545 S
Al85   O748    2.006   1_545 S
Al85   O102    1.925   .     S
Al85   O117    2.003   .     S
Al85   O786    1.811   1_545 S
O86    Al2689  1.811   1_554 S
O87    Al253   1.912   .     S
O87    C91     1.226   .     S
O88    C92     1.226   .     D
O88    Al99    1.925   .     S
O89    C91     1.299   .     D
O89    Al2913  2.003   1_554 S
O90    C92     1.281   .     S
C91    C97     1.456   .     S
C92    C98     1.449   .     S
C93    C95     1.434   .     D
C93    C97     1.412   .     D
C94    C96     1.439   .     T
C94    C98     1.411   .     S
C95    C98     1.395   .     D
C96    C97     1.357   .     S
Al99   O100    1.880   .     S
Al99   O101    1.912   .     S
O100   Al2759  1.811   1_554 S
O101   C105    1.226   .     S
O102   C106    1.226   .     D
O103   C105    1.299   .     D
O103   Al2759  2.003   1_554 S
O104   C106    1.281   .     S
C105   C111    1.456   .     S
C106   C112    1.449   .     S
C107   C109    1.434   .     D
C107   C111    1.412   .     D
C108   C110    1.439   .     T
C108   C112    1.411   .     S
C109   C112    1.395   .     D
C110   C111    1.357   .     S
Al113  O842    1.880   1_545 S
Al113  O171    1.912   .     S
Al113  O160    2.006   .     S
Al113  O1698   1.925   1_545 S
Al113  O1769   2.003   1_545 S
Al113  O1094   1.811   .     S
O114   Al281   1.880   .     S
O114   Al309   1.811   .     S
O115   C119    1.226   .     S
O116   C120    1.226   .     D
O116   Al2815  1.925   1_554 S
O117   C119    1.299   .     D
O118   C120    1.281   .     S
O118   Al155   2.006   .     S
C119   C125    1.456   .     S
C120   C126    1.449   .     S
C121   C123    1.434   .     D
C121   C2813   1.412   1_554 D
C122   C124    1.439   .     T
C122   C1022   1.411   .     S
C123   C126    1.395   .     D
C124   C125    1.357   .     S
C125   C1017   1.412   .     D
C126   C2810   1.411   1_554 S
Al127  O128    1.880   .     S
Al127  O129    1.912   .     S
Al127  O146    2.006   .     S
Al127  O1012   1.925   .     S
Al127  O1055   2.003   .     S
Al127  O1052   1.811   .     S
O128   Al155   1.811   .     S
O129   C133    1.226   .     S
O130   C134    1.226   .     D
O130   Al3025  1.925   1_554 S
O131   C133    1.299   .     D
O131   Al155   2.003   .     S
O132   C134    1.281   .     S
O132   Al365   2.006   .     S
C133   C139    1.456   .     S
C134   C140    1.449   .     S
C135   C137    1.434   .     D
C135   C2827   1.412   1_554 D
C136   C138    1.439   .     T
C136   C1036   1.411   .     S
C137   C140    1.395   .     D
C138   C139    1.357   .     S
C139   C1031   1.412   .     D
C140   C2824   1.411   1_554 S
Al141  O198    1.880   .     S
Al141  O871    1.912   1_545 S
Al141  O804    2.006   1_545 S
Al141  O158    1.925   .     S
Al141  O173    2.003   .     S
Al141  O842    1.811   1_545 S
O142   Al2745  1.811   1_554 S
O143   Al309   1.912   .     S
O143   C147    1.226   .     S
O144   C148    1.226   .     D
O144   Al155   1.925   .     S
O145   C147    1.299   .     D
O145   Al2969  2.003   1_554 S
O146   C148    1.281   .     S
C147   C153    1.456   .     S
C148   C154    1.449   .     S
C149   C151    1.434   .     D
C149   C153    1.412   .     D
C150   C152    1.439   .     T
C150   C154    1.411   .     S
C151   C154    1.395   .     D
C152   C153    1.357   .     S
Al155  O156    1.880   .     S
Al155  O157    1.912   .     S
O156   Al2815  1.811   1_554 S
O157   C161    1.226   .     S
O158   C162    1.226   .     D
O159   C161    1.299   .     D
O159   Al2815  2.003   1_554 S
O160   C162    1.281   .     S
C161   C167    1.456   .     S
C162   C168    1.449   .     S
C163   C165    1.434   .     D
C163   C167    1.412   .     D
C164   C166    1.439   .     T
C164   C168    1.411   .     S
C165   C168    1.395   .     D
C166   C167    1.357   .     S
Al169  O674    1.880   1_645 S
Al169  O3      1.912   1_655 S
Al169  O216    2.006   .     S
Al169  O1754   1.925   1_545 S
Al169  O1601   2.003   1_645 S
Al169  O926    1.811   1_655 S
O170   Al337   1.880   .     S
O170   Al365   1.811   .     S
O171   C175    1.226   .     S
O172   C176    1.226   .     D
O172   Al2871  1.925   1_554 S
O173   C175    1.299   .     D
O174   C176    1.281   .     S
O174   Al211   2.006   .     S
C175   C181    1.456   .     S
C176   C182    1.449   .     S
C177   C179    1.434   .     D
C177   C2869   1.412   1_554 D
C178   C180    1.439   .     T
C178   C1078   1.411   .     S
C179   C182    1.395   .     D
C180   C181    1.357   .     S
C181   C1073   1.412   .     D
C182   C2866   1.411   1_554 S
Al183  O184    1.880   .     S
Al183  O185    1.912   .     S
Al183  O202    2.006   .     S
Al183  O1068   1.925   .     S
Al183  O1111   2.003   .     S
Al183  O1108   1.811   .     S
O184   Al211   1.811   .     S
O185   C189    1.226   .     S
O186   C190    1.226   .     D
O186   Al3081  1.925   1_554 S
O187   C189    1.299   .     D
O187   Al211   2.003   .     S
O188   C190    1.281   .     S
O188   Al421   2.006   .     S
C189   C195    1.456   .     S
C190   C196    1.449   .     S
C191   C193    1.434   .     D
C191   C2883   1.412   1_554 D
C192   C194    1.439   .     T
C192   C1092   1.411   .     S
C193   C196    1.395   .     D
C194   C195    1.357   .     S
C195   C1087   1.412   .     D
C196   C2880   1.411   1_554 S
Al197  O30     1.880   1_655 S
Al197  O703    1.912   1_645 S
Al197  O860    2.006   1_545 S
Al197  O214    1.925   .     S
Al197  O5      2.003   1_655 S
Al197  O674    1.811   1_645 S
O198   Al2801  1.811   1_554 S
O199   Al365   1.912   .     S
O199   C203    1.226   .     S
O200   C204    1.226   .     D
O200   Al211   1.925   .     S
O201   C203    1.299   .     D
O201   Al3025  2.003   1_554 S
O202   C204    1.281   .     S
C203   C209    1.456   .     S
C204   C210    1.449   .     S
C205   C207    1.434   .     D
C205   C209    1.412   .     D
C206   C208    1.439   .     T
C206   C210    1.411   .     S
C207   C210    1.395   .     D
C208   C209    1.357   .     S
Al211  O212    1.880   .     S
Al211  O213    1.912   .     S
O212   Al2871  1.811   1_554 S
O213   C217    1.226   .     S
O214   C218    1.226   .     D
O215   C217    1.299   .     D
O215   Al2871  2.003   1_554 S
O216   C218    1.281   .     S
C217   C223    1.456   .     S
C218   C224    1.449   .     S
C219   C221    1.434   .     D
C219   C223    1.412   .     D
C220   C222    1.439   .     T
C220   C224    1.411   .     S
C221   C224    1.395   .     D
C222   C223    1.357   .     S
Al225  O283    1.912   .     S
Al225  O272    2.006   .     S
Al225  O914    1.925   .     S
Al225  O985    2.003   .     S
Al225  O1206   1.811   .     S
O226   Al617   1.880   1_455 S
O226   Al645   1.811   1_455 S
O227   Al393   1.912   1_455 S
O227   C231    1.226   .     S
O228   C232    1.226   .     D
O228   Al2927  1.925   1_554 S
O229   C231    1.299   .     D
O229   Al421   2.003   1_455 S
O230   C232    1.281   .     S
O230   Al267   2.006   .     S
C231   C237    1.456   .     S
C232   C238    1.449   .     S
C233   C235    1.434   .     D
C233   C2925   1.412   1_554 D
C234   C236    1.439   .     T
C234   C1134   1.411   .     S
C235   C238    1.395   .     D
C236   C237    1.357   .     S
C237   C1129   1.412   .     D
C238   C2922   1.411   1_554 S
Al239  O240    1.880   .     S
Al239  O241    1.912   .     S
Al239  O258    2.006   .     S
Al239  O1124   1.925   .     S
Al239  O1167   2.003   .     S
Al239  O1164   1.811   .     S
O240   Al267   1.811   .     S
O241   C245    1.226   .     S
O242   C246    1.226   .     D
O242   Al3137  1.925   1_554 S
O243   C245    1.299   .     D
O243   Al267   2.003   .     S
O244   C246    1.281   .     S
O244   Al477   2.006   .     S
C245   C251    1.456   .     S
C246   C252    1.449   .     S
C247   C249    1.434   .     D
C247   C2939   1.412   1_554 D
C248   C250    1.439   .     T
C248   C1148   1.411   .     S
C249   C252    1.395   .     D
C250   C251    1.357   .     S
C251   C1143   1.412   .     D
C252   C2936   1.411   1_554 S
Al253  O310    1.880   .     S
Al253  O270    1.925   .     S
Al253  O285    2.003   .     S
O254   Al421   1.880   1_455 S
O254   Al3081  1.811   1_454 S
O255   Al645   1.912   1_455 S
O255   C259    1.226   .     S
O256   C260    1.226   .     D
O256   Al267   1.925   .     S
O257   C259    1.299   .     D
O257   Al3305  2.003   1_454 S
O258   C260    1.281   .     S
C259   C265    1.456   .     S
C260   C266    1.449   .     S
C261   C263    1.434   .     D
C261   C265    1.412   .     D
C262   C264    1.439   .     T
C262   C266    1.411   .     S
C263   C266    1.395   .     D
C264   C265    1.357   .     S
Al267  O268    1.880   .     S
Al267  O269    1.912   .     S
O268   Al2927  1.811   1_554 S
O269   C273    1.226   .     S
O270   C274    1.226   .     D
O271   C273    1.299   .     D
O271   Al2927  2.003   1_554 S
O272   C274    1.281   .     S
C273   C279    1.456   .     S
C274   C280    1.449   .     S
C275   C277    1.434   .     D
C275   C279    1.412   .     D
C276   C278    1.439   .     T
C276   C280    1.411   .     S
C277   C280    1.395   .     D
C278   C279    1.357   .     S
Al281  O339    1.912   .     S
Al281  O328    2.006   .     S
Al281  O970    1.925   .     S
Al281  O1041   2.003   .     S
Al281  O1262   1.811   .     S
O282   Al449   1.880   .     S
O282   Al477   1.811   .     S
O283   C287    1.226   .     S
O284   C288    1.226   .     D
O284   Al2983  1.925   1_554 S
O285   C287    1.299   .     D
O286   C288    1.281   .     S
O286   Al323   2.006   .     S
C287   C293    1.456   .     S
C288   C294    1.449   .     S
C289   C291    1.434   .     D
C289   C2981   1.412   1_554 D
C290   C292    1.439   .     T
C290   C1190   1.411   .     S
C291   C294    1.395   .     D
C292   C293    1.357   .     S
C293   C1185   1.412   .     D
C294   C2978   1.411   1_554 S
Al295  O296    1.880   .     S
Al295  O297    1.912   .     S
Al295  O314    2.006   .     S
Al295  O1180   1.925   .     S
Al295  O1223   2.003   .     S
Al295  O1220   1.811   .     S
O296   Al323   1.811   .     S
O297   C301    1.226   .     S
O298   C302    1.226   .     D
O298   Al3193  1.925   1_554 S
O299   C301    1.299   .     D
O299   Al323   2.003   .     S
O300   C302    1.281   .     S
O300   Al533   2.006   .     S
C301   C307    1.456   .     S
C302   C308    1.449   .     S
C303   C305    1.434   .     D
C303   C2995   1.412   1_554 D
C304   C306    1.439   .     T
C304   C1204   1.411   .     S
C305   C308    1.395   .     D
C306   C307    1.357   .     S
C307   C1199   1.412   .     D
C308   C2992   1.411   1_554 S
Al309  O366    1.880   .     S
Al309  O326    1.925   .     S
Al309  O341    2.003   .     S
O310   Al2913  1.811   1_554 S
O311   Al477   1.912   .     S
O311   C315    1.226   .     S
O312   C316    1.226   .     D
O312   Al323   1.925   .     S
O313   C315    1.299   .     D
O313   Al3137  2.003   1_554 S
O314   C316    1.281   .     S
C315   C321    1.456   .     S
C316   C322    1.449   .     S
C317   C319    1.434   .     D
C317   C321    1.412   .     D
C318   C320    1.439   .     T
C318   C322    1.411   .     S
C319   C322    1.395   .     D
C320   C321    1.357   .     S
Al323  O324    1.880   .     S
Al323  O325    1.912   .     S
O324   Al2983  1.811   1_554 S
O325   C329    1.226   .     S
O326   C330    1.226   .     D
O327   C329    1.299   .     D
O327   Al2983  2.003   1_554 S
O328   C330    1.281   .     S
C329   C335    1.456   .     S
C330   C336    1.449   .     S
C331   C333    1.434   .     D
C331   C335    1.412   .     D
C332   C334    1.439   .     T
C332   C336    1.411   .     S
C333   C336    1.395   .     D
C334   C335    1.357   .     S
Al337  O395    1.912   .     S
Al337  O384    2.006   .     S
Al337  O1026   1.925   .     S
Al337  O1097   2.003   .     S
Al337  O1318   1.811   .     S
O338   Al505   1.880   .     S
O338   Al533   1.811   .     S
O339   C343    1.226   .     S
O340   C344    1.226   .     D
O340   Al3039  1.925   1_554 S
O341   C343    1.299   .     D
O342   C344    1.281   .     S
O342   Al379   2.006   .     S
C343   C349    1.456   .     S
C344   C350    1.449   .     S
C345   C347    1.434   .     D
C345   C3037   1.412   1_554 D
C346   C348    1.439   .     T
C346   C1246   1.411   .     S
C347   C350    1.395   .     D
C348   C349    1.357   .     S
C349   C1241   1.412   .     D
C350   C3034   1.411   1_554 S
Al351  O352    1.880   .     S
Al351  O353    1.912   .     S
Al351  O370    2.006   .     S
Al351  O1236   1.925   .     S
Al351  O1279   2.003   .     S
Al351  O1276   1.811   .     S
O352   Al379   1.811   .     S
O353   C357    1.226   .     S
O354   C358    1.226   .     D
O354   Al3249  1.925   1_554 S
O355   C357    1.299   .     D
O355   Al379   2.003   .     S
O356   C358    1.281   .     S
O356   Al589   2.006   .     S
C357   C363    1.456   .     S
C358   C364    1.449   .     S
C359   C361    1.434   .     D
C359   C3051   1.412   1_554 D
C360   C362    1.439   .     T
C360   C1260   1.411   .     S
C361   C364    1.395   .     D
C362   C363    1.357   .     S
C363   C1255   1.412   .     D
C364   C3048   1.411   1_554 S
Al365  O422    1.880   .     S
Al365  O382    1.925   .     S
Al365  O397    2.003   .     S
O366   Al2969  1.811   1_554 S
O367   Al533   1.912   .     S
O367   C371    1.226   .     S
O368   C372    1.226   .     D
O368   Al379   1.925   .     S
O369   C371    1.299   .     D
O369   Al3193  2.003   1_554 S
O370   C372    1.281   .     S
C371   C377    1.456   .     S
C372   C378    1.449   .     S
C373   C375    1.434   .     D
C373   C377    1.412   .     D
C374   C376    1.439   .     T
C374   C378    1.411   .     S
C375   C378    1.395   .     D
C376   C377    1.357   .     S
Al379  O380    1.880   .     S
Al379  O381    1.912   .     S
O380   Al3039  1.811   1_554 S
O381   C385    1.226   .     S
O382   C386    1.226   .     D
O383   C385    1.299   .     D
O383   Al3039  2.003   1_554 S
O384   C386    1.281   .     S
C385   C391    1.456   .     S
C386   C392    1.449   .     S
C387   C389    1.434   .     D
C387   C391    1.412   .     D
C388   C390    1.439   .     T
C388   C392    1.411   .     S
C389   C392    1.395   .     D
C390   C391    1.357   .     S
Al393  O2      1.880   1_655 S
Al393  O227    1.912   1_655 S
Al393  O440    2.006   .     S
Al393  O1082   1.925   .     S
Al393  O929    2.003   1_655 S
Al393  O1150   1.811   1_655 S
O394   Al561   1.880   .     S
O394   Al589   1.811   .     S
O395   C399    1.226   .     S
O396   C400    1.226   .     D
O396   Al3095  1.925   1_554 S
O397   C399    1.299   .     D
O398   C400    1.281   .     S
O398   Al435   2.006   .     S
C399   C405    1.456   .     S
C400   C406    1.449   .     S
C401   C403    1.434   .     D
C401   C3093   1.412   1_554 D
C402   C404    1.439   .     T
C402   C1302   1.411   .     S
C403   C406    1.395   .     D
C404   C405    1.357   .     S
C405   C1297   1.412   .     D
C406   C3090   1.411   1_554 S
Al407  O408    1.880   .     S
Al407  O409    1.912   .     S
Al407  O426    2.006   .     S
Al407  O1292   1.925   .     S
Al407  O1335   2.003   .     S
Al407  O1332   1.811   .     S
O408   Al435   1.811   .     S
O409   C413    1.226   .     S
O410   C414    1.226   .     D
O410   Al3305  1.925   1_554 S
O411   C413    1.299   .     D
O411   Al435   2.003   .     S
O412   C414    1.281   .     S
O412   Al645   2.006   .     S
C413   C419    1.456   .     S
C414   C420    1.449   .     S
C415   C417    1.434   .     D
C415   C3107   1.412   1_554 D
C416   C418    1.439   .     T
C416   C1316   1.411   .     S
C417   C420    1.395   .     D
C418   C419    1.357   .     S
C419   C1311   1.412   .     D
C420   C3104   1.411   1_554 S
Al421  O254    1.880   1_655 S
Al421  O31     1.912   1_655 S
Al421  O438    1.925   .     S
Al421  O229    2.003   1_655 S
Al421  O2      1.811   1_655 S
O422   Al3025  1.811   1_554 S
O423   Al589   1.912   .     S
O423   C427    1.226   .     S
O424   C428    1.226   .     D
O424   Al435   1.925   .     S
O425   C427    1.299   .     D
O425   Al3249  2.003   1_554 S
O426   C428    1.281   .     S
C427   C433    1.456   .     S
C428   C434    1.449   .     S
C429   C431    1.434   .     D
C429   C433    1.412   .     D
C430   C432    1.439   .     T
C430   C434    1.411   .     S
C431   C434    1.395   .     D
C432   C433    1.357   .     S
Al435  O436    1.880   .     S
Al435  O437    1.912   .     S
O436   Al3095  1.811   1_554 S
O437   C441    1.226   .     S
O438   C442    1.226   .     D
O439   C441    1.299   .     D
O439   Al3095  2.003   1_554 S
O440   C442    1.281   .     S
C441   C447    1.456   .     S
C442   C448    1.449   .     S
C443   C445    1.434   .     D
C443   C447    1.412   .     D
C444   C446    1.439   .     T
C444   C448    1.411   .     S
C445   C448    1.395   .     D
C446   C447    1.357   .     S
Al449  O507    1.912   .     S
Al449  O496    2.006   .     S
Al449  O1138   1.925   .     S
Al449  O1209   2.003   .     S
Al449  O1430   1.811   .     S
O450   Al841   1.880   1_455 S
O450   Al869   1.811   1_455 S
O451   Al617   1.912   1_455 S
O451   C455    1.226   .     S
O452   C456    1.226   .     D
O452   Al3151  1.925   1_554 S
O453   C455    1.299   .     D
O453   Al645   2.003   1_455 S
O454   C456    1.281   .     S
O454   Al491   2.006   .     S
C455   C461    1.456   .     S
C456   C462    1.449   .     S
C457   C459    1.434   .     D
C457   C3149   1.412   1_554 D
C458   C460    1.439   .     T
C458   C1358   1.411   .     S
C459   C462    1.395   .     D
C460   C461    1.357   .     S
C461   C1353   1.412   .     D
C462   C3146   1.411   1_554 S
Al463  O464    1.880   .     S
Al463  O465    1.912   .     S
Al463  O482    2.006   .     S
Al463  O1348   1.925   .     S
Al463  O1391   2.003   .     S
Al463  O1388   1.811   .     S
O464   Al491   1.811   .     S
O465   C469    1.226   .     S
O466   C470    1.226   .     D
O466   Al3361  1.925   1_554 S
O467   C469    1.299   .     D
O467   Al491   2.003   .     S
O468   C470    1.281   .     S
O468   Al701   2.006   .     S
C469   C475    1.456   .     S
C470   C476    1.449   .     S
C471   C473    1.434   .     D
C471   C3163   1.412   1_554 D
C472   C474    1.439   .     T
C472   C1372   1.411   .     S
C473   C476    1.395   .     D
C474   C475    1.357   .     S
C475   C1367   1.412   .     D
C476   C3160   1.411   1_554 S
Al477  O534    1.880   .     S
Al477  O494    1.925   .     S
Al477  O509    2.003   .     S
O478   Al645   1.880   1_455 S
O478   Al3305  1.811   1_454 S
O479   Al869   1.912   1_455 S
O479   C483    1.226   .     S
O480   C484    1.226   .     D
O480   Al491   1.925   .     S
O481   C483    1.299   .     D
O481   Al3529  2.003   1_454 S
O482   C484    1.281   .     S
C483   C489    1.456   .     S
C484   C490    1.449   .     S
C485   C487    1.434   .     D
C485   C489    1.412   .     D
C486   C488    1.439   .     T
C486   C490    1.411   .     S
C487   C490    1.395   .     D
C488   C489    1.357   .     S
Al491  O492    1.880   .     S
Al491  O493    1.912   .     S
O492   Al3151  1.811   1_554 S
O493   C497    1.226   .     S
O494   C498    1.226   .     D
O495   C497    1.299   .     D
O495   Al3151  2.003   1_554 S
O496   C498    1.281   .     S
C497   C503    1.456   .     S
C498   C504    1.449   .     S
C499   C501    1.434   .     D
C499   C503    1.412   .     D
C500   C502    1.439   .     T
C500   C504    1.411   .     S
C501   C504    1.395   .     D
C502   C503    1.357   .     S
Al505  O563    1.912   .     S
Al505  O552    2.006   .     S
Al505  O1194   1.925   .     S
Al505  O1265   2.003   .     S
Al505  O1486   1.811   .     S
O506   Al673   1.880   .     S
O506   Al701   1.811   .     S
O507   C511    1.226   .     S
O508   C512    1.226   .     D
O508   Al3207  1.925   1_554 S
O509   C511    1.299   .     D
O510   C512    1.281   .     S
O510   Al547   2.006   .     S
C511   C517    1.456   .     S
C512   C518    1.449   .     S
C513   C515    1.434   .     D
C513   C3205   1.412   1_554 D
C514   C516    1.439   .     T
C514   C1414   1.411   .     S
C515   C518    1.395   .     D
C516   C517    1.357   .     S
C517   C1409   1.412   .     D
C518   C3202   1.411   1_554 S
Al519  O520    1.880   .     S
Al519  O521    1.912   .     S
Al519  O538    2.006   .     S
Al519  O1404   1.925   .     S
Al519  O1447   2.003   .     S
Al519  O1444   1.811   .     S
O520   Al547   1.811   .     S
O521   C525    1.226   .     S
O522   C526    1.226   .     D
O522   Al3417  1.925   1_554 S
O523   C525    1.299   .     D
O523   Al547   2.003   .     S
O524   C526    1.281   .     S
O524   Al757   2.006   .     S
C525   C531    1.456   .     S
C526   C532    1.449   .     S
C527   C529    1.434   .     D
C527   C3219   1.412   1_554 D
C528   C530    1.439   .     T
C528   C1428   1.411   .     S
C529   C532    1.395   .     D
C530   C531    1.357   .     S
C531   C1423   1.412   .     D
C532   C3216   1.411   1_554 S
Al533  O590    1.880   .     S
Al533  O550    1.925   .     S
Al533  O565    2.003   .     S
O534   Al3137  1.811   1_554 S
O535   Al701   1.912   .     S
O535   C539    1.226   .     S
O536   C540    1.226   .     D
O536   Al547   1.925   .     S
O537   C539    1.299   .     D
O537   Al3361  2.003   1_554 S
O538   C540    1.281   .     S
C539   C545    1.456   .     S
C540   C546    1.449   .     S
C541   C543    1.434   .     D
C541   C545    1.412   .     D
C542   C544    1.439   .     T
C542   C546    1.411   .     S
C543   C546    1.395   .     D
C544   C545    1.357   .     S
Al547  O548    1.880   .     S
Al547  O549    1.912   .     S
O548   Al3207  1.811   1_554 S
O549   C553    1.226   .     S
O550   C554    1.226   .     D
O551   C553    1.299   .     D
O551   Al3207  2.003   1_554 S
O552   C554    1.281   .     S
C553   C559    1.456   .     S
C554   C560    1.449   .     S
C555   C557    1.434   .     D
C555   C559    1.412   .     D
C556   C558    1.439   .     T
C556   C560    1.411   .     S
C557   C560    1.395   .     D
C558   C559    1.357   .     S
Al561  O619    1.912   .     S
Al561  O608    2.006   .     S
Al561  O1250   1.925   .     S
Al561  O1321   2.003   .     S
Al561  O1542   1.811   .     S
O562   Al729   1.880   .     S
O562   Al757   1.811   .     S
O563   C567    1.226   .     S
O564   C568    1.226   .     D
O564   Al3263  1.925   1_554 S
O565   C567    1.299   .     D
O566   C568    1.281   .     S
O566   Al603   2.006   .     S
C567   C573    1.456   .     S
C568   C574    1.449   .     S
C569   C571    1.434   .     D
C569   C3261   1.412   1_554 D
C570   C572    1.439   .     T
C570   C1470   1.411   .     S
C571   C574    1.395   .     D
C572   C573    1.357   .     S
C573   C1465   1.412   .     D
C574   C3258   1.411   1_554 S
Al575  O576    1.880   .     S
Al575  O577    1.912   .     S
Al575  O594    2.006   .     S
Al575  O1460   1.925   .     S
Al575  O1503   2.003   .     S
Al575  O1500   1.811   .     S
O576   Al603   1.811   .     S
O577   C581    1.226   .     S
O578   C582    1.226   .     D
O578   Al3473  1.925   1_554 S
O579   C581    1.299   .     D
O579   Al603   2.003   .     S
O580   C582    1.281   .     S
O580   Al813   2.006   .     S
C581   C587    1.456   .     S
C582   C588    1.449   .     S
C583   C585    1.434   .     D
C583   C3275   1.412   1_554 D
C584   C586    1.439   .     T
C584   C1484   1.411   .     S
C585   C588    1.395   .     D
C586   C587    1.357   .     S
C587   C1479   1.412   .     D
C588   C3272   1.411   1_554 S
Al589  O646    1.880   .     S
Al589  O606    1.925   .     S
Al589  O621    2.003   .     S
O590   Al3193  1.811   1_554 S
O591   Al757   1.912   .     S
O591   C595    1.226   .     S
O592   C596    1.226   .     D
O592   Al603   1.925   .     S
O593   C595    1.299   .     D
O593   Al3417  2.003   1_554 S
O594   C596    1.281   .     S
C595   C601    1.456   .     S
C596   C602    1.449   .     S
C597   C599    1.434   .     D
C597   C601    1.412   .     D
C598   C600    1.439   .     T
C598   C602    1.411   .     S
C599   C602    1.395   .     D
C600   C601    1.357   .     S
Al603  O604    1.880   .     S
Al603  O605    1.912   .     S
O604   Al3263  1.811   1_554 S
O605   C609    1.226   .     S
O606   C610    1.226   .     D
O607   C609    1.299   .     D
O607   Al3263  2.003   1_554 S
O608   C610    1.281   .     S
C609   C615    1.456   .     S
C610   C616    1.449   .     S
C611   C613    1.434   .     D
C611   C615    1.412   .     D
C612   C614    1.439   .     T
C612   C616    1.411   .     S
C613   C616    1.395   .     D
C614   C615    1.357   .     S
Al617  O226    1.880   1_655 S
Al617  O451    1.912   1_655 S
Al617  O664    2.006   .     S
Al617  O1306   1.925   .     S
Al617  O1153   2.003   1_655 S
Al617  O1374   1.811   1_655 S
O618   Al785   1.880   .     S
O618   Al813   1.811   .     S
O619   C623    1.226   .     S
O620   C624    1.226   .     D
O620   Al3319  1.925   1_554 S
O621   C623    1.299   .     D
O622   C624    1.281   .     S
O622   Al659   2.006   .     S
C623   C629    1.456   .     S
C624   C630    1.449   .     S
C625   C627    1.434   .     D
C625   C3317   1.412   1_554 D
C626   C628    1.439   .     T
C626   C1526   1.411   .     S
C627   C630    1.395   .     D
C628   C629    1.357   .     S
C629   C1521   1.412   .     D
C630   C3314   1.411   1_554 S
Al631  O632    1.880   .     S
Al631  O633    1.912   .     S
Al631  O650    2.006   .     S
Al631  O1516   1.925   .     S
Al631  O1559   2.003   .     S
Al631  O1556   1.811   .     S
O632   Al659   1.811   .     S
O633   C637    1.226   .     S
O634   C638    1.226   .     D
O634   Al3529  1.925   1_554 S
O635   C637    1.299   .     D
O635   Al659   2.003   .     S
O636   C638    1.281   .     S
O636   Al869   2.006   .     S
C637   C643    1.456   .     S
C638   C644    1.449   .     S
C639   C641    1.434   .     D
C639   C3331   1.412   1_554 D
C640   C642    1.439   .     T
C640   C1540   1.411   .     S
C641   C644    1.395   .     D
C642   C643    1.357   .     S
C643   C1535   1.412   .     D
C644   C3328   1.411   1_554 S
Al645  O478    1.880   1_655 S
Al645  O255    1.912   1_655 S
Al645  O662    1.925   .     S
Al645  O453    2.003   1_655 S
Al645  O226    1.811   1_655 S
O646   Al3249  1.811   1_554 S
O647   Al813   1.912   .     S
O647   C651    1.226   .     S
O648   C652    1.226   .     D
O648   Al659   1.925   .     S
O649   C651    1.299   .     D
O649   Al3473  2.003   1_554 S
O650   C652    1.281   .     S
C651   C657    1.456   .     S
C652   C658    1.449   .     S
C653   C655    1.434   .     D
C653   C657    1.412   .     D
C654   C656    1.439   .     T
C654   C658    1.411   .     S
C655   C658    1.395   .     D
C656   C657    1.357   .     S
Al659  O660    1.880   .     S
Al659  O661    1.912   .     S
O660   Al3319  1.811   1_554 S
O661   C665    1.226   .     S
O662   C666    1.226   .     D
O663   C665    1.299   .     D
O663   Al3319  2.003   1_554 S
O664   C666    1.281   .     S
C665   C671    1.456   .     S
C666   C672    1.449   .     S
C667   C669    1.434   .     D
C667   C671    1.412   .     D
C668   C670    1.439   .     T
C668   C672    1.411   .     S
C669   C672    1.395   .     D
C670   C671    1.357   .     S
Al673  O731    1.912   .     S
Al673  O720    2.006   .     S
Al673  O1362   1.925   .     S
Al673  O1433   2.003   .     S
Al673  O1654   1.811   .     S
O674   Al169   1.880   1_465 S
O674   Al197   1.811   1_465 S
O675   Al841   1.912   1_455 S
O675   C679    1.226   .     S
O676   C680    1.226   .     D
O676   Al3375  1.925   1_554 S
O677   C679    1.299   .     D
O677   Al869   2.003   1_455 S
O678   C680    1.281   .     S
O678   Al715   2.006   .     S
C679   C685    1.456   .     S
C680   C686    1.449   .     S
C681   C683    1.434   .     D
C681   C3373   1.412   1_554 D
C682   C684    1.439   .     T
C682   C1582   1.411   .     S
C683   C686    1.395   .     D
C684   C685    1.357   .     S
C685   C1577   1.412   .     D
C686   C3370   1.411   1_554 S
Al687  O688    1.880   .     S
Al687  O689    1.912   .     S
Al687  O706    2.006   .     S
Al687  O1572   1.925   .     S
Al687  O1615   2.003   .     S
Al687  O1612   1.811   .     S
O688   Al715   1.811   .     S
O689   C693    1.226   .     S
O690   C694    1.226   .     D
O690   Al2689  1.925   1_564 S
O691   C693    1.299   .     D
O691   Al715   2.003   .     S
O692   C694    1.281   .     S
O692   Al29    2.006   1_565 S
C693   C699    1.456   .     S
C694   C700    1.449   .     S
C695   C697    1.434   .     D
C695   C3387   1.412   1_554 D
C696   C698    1.439   .     T
C696   C1596   1.411   .     S
C697   C700    1.395   .     D
C698   C699    1.357   .     S
C699   C1591   1.412   .     D
C700   C3384   1.411   1_554 S
Al701  O758    1.880   .     S
Al701  O718    1.925   .     S
Al701  O733    2.003   .     S
O702   Al869   1.880   1_455 S
O702   Al3529  1.811   1_454 S
O703   Al197   1.912   1_465 S
O703   C707    1.226   .     S
O704   C708    1.226   .     D
O704   Al715   1.925   .     S
O705   C707    1.299   .     D
O705   Al2857  2.003   1_464 S
O706   C708    1.281   .     S
C707   C713    1.456   .     S
C708   C714    1.449   .     S
C709   C711    1.434   .     D
C709   C713    1.412   .     D
C710   C712    1.439   .     T
C710   C714    1.411   .     S
C711   C714    1.395   .     D
C712   C713    1.357   .     S
Al715  O716    1.880   .     S
Al715  O717    1.912   .     S
O716   Al3375  1.811   1_554 S
O717   C721    1.226   .     S
O718   C722    1.226   .     D
O719   C721    1.299   .     D
O719   Al3375  2.003   1_554 S
O720   C722    1.281   .     S
C721   C727    1.456   .     S
C722   C728    1.449   .     S
C723   C725    1.434   .     D
C723   C727    1.412   .     D
C724   C726    1.439   .     T
C724   C728    1.411   .     S
C725   C728    1.395   .     D
C726   C727    1.357   .     S
Al729  O787    1.912   .     S
Al729  O776    2.006   .     S
Al729  O1418   1.925   .     S
Al729  O1489   2.003   .     S
Al729  O1710   1.811   .     S
O730   Al1     1.880   1_565 S
O730   Al29    1.811   1_565 S
O731   C735    1.226   .     S
O732   C736    1.226   .     D
O732   Al3431  1.925   1_554 S
O733   C735    1.299   .     D
O734   C736    1.281   .     S
O734   Al771   2.006   .     S
C735   C741    1.456   .     S
C736   C742    1.449   .     S
C737   C739    1.434   .     D
C737   C3429   1.412   1_554 D
C738   C740    1.439   .     T
C738   C1638   1.411   .     S
C739   C742    1.395   .     D
C740   C741    1.357   .     S
C741   C1633   1.412   .     D
C742   C3426   1.411   1_554 S
Al743  O744    1.880   .     S
Al743  O745    1.912   .     S
Al743  O762    2.006   .     S
Al743  O1628   1.925   .     S
Al743  O1671   2.003   .     S
Al743  O1668   1.811   .     S
O744   Al771   1.811   .     S
O745   C749    1.226   .     S
O746   C750    1.226   .     D
O746   Al2745  1.925   1_564 S
O747   C749    1.299   .     D
O747   Al771   2.003   .     S
O748   C750    1.281   .     S
O748   Al85    2.006   1_565 S
C749   C755    1.456   .     S
C750   C756    1.449   .     S
C751   C753    1.434   .     D
C751   C3443   1.412   1_554 D
C752   C754    1.439   .     T
C752   C1652   1.411   .     S
C753   C756    1.395   .     D
C754   C755    1.357   .     S
C755   C1647   1.412   .     D
C756   C3440   1.411   1_554 S
Al757  O814    1.880   .     S
Al757  O774    1.925   .     S
Al757  O789    2.003   .     S
O758   Al3361  1.811   1_554 S
O759   Al29    1.912   1_565 S
O759   C763    1.226   .     S
O760   C764    1.226   .     D
O760   Al771   1.925   .     S
O761   C763    1.299   .     D
O761   Al2689  2.003   1_564 S
O762   C764    1.281   .     S
C763   C769    1.456   .     S
C764   C770    1.449   .     S
C765   C767    1.434   .     D
C765   C769    1.412   .     D
C766   C768    1.439   .     T
C766   C770    1.411   .     S
C767   C770    1.395   .     D
C768   C769    1.357   .     S
Al771  O772    1.880   .     S
Al771  O773    1.912   .     S
O772   Al3431  1.811   1_554 S
O773   C777    1.226   .     S
O774   C778    1.226   .     D
O775   C777    1.299   .     D
O775   Al3431  2.003   1_554 S
O776   C778    1.281   .     S
C777   C783    1.456   .     S
C778   C784    1.449   .     S
C779   C781    1.434   .     D
C779   C783    1.412   .     D
C780   C782    1.439   .     T
C780   C784    1.411   .     S
C781   C784    1.395   .     D
C782   C783    1.357   .     S
Al785  O843    1.912   .     S
Al785  O832    2.006   .     S
Al785  O1474   1.925   .     S
Al785  O1545   2.003   .     S
Al785  O1766   1.811   .     S
O786   Al57    1.880   1_565 S
O786   Al85    1.811   1_565 S
O787   C791    1.226   .     S
O788   C792    1.226   .     D
O788   Al3487  1.925   1_554 S
O789   C791    1.299   .     D
O790   C792    1.281   .     S
O790   Al827   2.006   .     S
C791   C797    1.456   .     S
C792   C798    1.449   .     S
C793   C795    1.434   .     D
C793   C3485   1.412   1_554 D
C794   C796    1.439   .     T
C794   C1694   1.411   .     S
C795   C798    1.395   .     D
C796   C797    1.357   .     S
C797   C1689   1.412   .     D
C798   C3482   1.411   1_554 S
Al799  O800    1.880   .     S
Al799  O801    1.912   .     S
Al799  O818    2.006   .     S
Al799  O1684   1.925   .     S
Al799  O1727   2.003   .     S
Al799  O1724   1.811   .     S
O800   Al827   1.811   .     S
O801   C805    1.226   .     S
O802   C806    1.226   .     D
O802   Al2801  1.925   1_564 S
O803   C805    1.299   .     D
O803   Al827   2.003   .     S
O804   C806    1.281   .     S
O804   Al141   2.006   1_565 S
C805   C811    1.456   .     S
C806   C812    1.449   .     S
C807   C809    1.434   .     D
C807   C3499   1.412   1_554 D
C808   C810    1.439   .     T
C808   C1708   1.411   .     S
C809   C812    1.395   .     D
C810   C811    1.357   .     S
C811   C1703   1.412   .     D
C812   C3496   1.411   1_554 S
Al813  O870    1.880   .     S
Al813  O830    1.925   .     S
Al813  O845    2.003   .     S
O814   Al3417  1.811   1_554 S
O815   Al85    1.912   1_565 S
O815   C819    1.226   .     S
O816   C820    1.226   .     D
O816   Al827   1.925   .     S
O817   C819    1.299   .     D
O817   Al2745  2.003   1_564 S
O818   C820    1.281   .     S
C819   C825    1.456   .     S
C820   C826    1.449   .     S
C821   C823    1.434   .     D
C821   C825    1.412   .     D
C822   C824    1.439   .     T
C822   C826    1.411   .     S
C823   C826    1.395   .     D
C824   C825    1.357   .     S
Al827  O828    1.880   .     S
Al827  O829    1.912   .     S
O828   Al3487  1.811   1_554 S
O829   C833    1.226   .     S
O830   C834    1.226   .     D
O831   C833    1.299   .     D
O831   Al3487  2.003   1_554 S
O832   C834    1.281   .     S
C833   C839    1.456   .     S
C834   C840    1.449   .     S
C835   C837    1.434   .     D
C835   C839    1.412   .     D
C836   C838    1.439   .     T
C836   C840    1.411   .     S
C837   C840    1.395   .     D
C838   C839    1.357   .     S
Al841  O450    1.880   1_655 S
Al841  O675    1.912   1_655 S
Al841  O888    2.006   .     S
Al841  O1530   1.925   .     S
Al841  O1377   2.003   1_655 S
Al841  O1598   1.811   1_655 S
O842   Al113   1.880   1_565 S
O842   Al141   1.811   1_565 S
O843   C847    1.226   .     S
O844   C848    1.226   .     D
O844   Al3543  1.925   1_554 S
O845   C847    1.299   .     D
O846   C848    1.281   .     S
O846   Al883   2.006   .     S
C847   C853    1.456   .     S
C848   C854    1.449   .     S
C849   C851    1.434   .     D
C849   C3541   1.412   1_554 D
C850   C852    1.439   .     T
C850   C1750   1.411   .     S
C851   C854    1.395   .     D
C852   C853    1.357   .     S
C853   C1745   1.412   .     D
C854   C3538   1.411   1_554 S
Al855  O856    1.880   .     S
Al855  O857    1.912   .     S
Al855  O874    2.006   .     S
Al855  O1740   1.925   .     S
Al855  O1783   2.003   .     S
Al855  O1780   1.811   .     S
O856   Al883   1.811   .     S
O857   C861    1.226   .     S
O858   C862    1.226   .     D
O858   Al2857  1.925   1_564 S
O859   C861    1.299   .     D
O859   Al883   2.003   .     S
O860   C862    1.281   .     S
O860   Al197   2.006   1_565 S
C861   C867    1.456   .     S
C862   C868    1.449   .     S
C863   C865    1.434   .     D
C863   C3555   1.412   1_554 D
C864   C866    1.439   .     T
C864   C1764   1.411   .     S
C865   C868    1.395   .     D
C866   C867    1.357   .     S
C867   C1759   1.412   .     D
C868   C3552   1.411   1_554 S
Al869  O702    1.880   1_655 S
Al869  O479    1.912   1_655 S
Al869  O886    1.925   .     S
Al869  O677    2.003   1_655 S
Al869  O450    1.811   1_655 S
O870   Al3473  1.811   1_554 S
O871   Al141   1.912   1_565 S
O871   C875    1.226   .     S
O872   C876    1.226   .     D
O872   Al883   1.925   .     S
O873   C875    1.299   .     D
O873   Al2801  2.003   1_564 S
O874   C876    1.281   .     S
C875   C881    1.456   .     S
C876   C882    1.449   .     S
C877   C879    1.434   .     D
C877   C881    1.412   .     D
C878   C880    1.439   .     T
C878   C882    1.411   .     S
C879   C882    1.395   .     D
C880   C881    1.357   .     S
Al883  O884    1.880   .     S
Al883  O885    1.912   .     S
O884   Al3543  1.811   1_554 S
O885   C889    1.226   .     S
O886   C890    1.226   .     D
O887   C889    1.299   .     D
O887   Al3543  2.003   1_554 S
O888   C890    1.281   .     S
C889   C895    1.456   .     S
C890   C896    1.449   .     S
C891   C893    1.434   .     D
C891   C895    1.412   .     D
C892   C894    1.439   .     T
C892   C896    1.411   .     S
C893   C896    1.395   .     D
C894   C895    1.357   .     S
Al897  O1626   1.880   1_545 S
Al897  O955    1.912   .     S
Al897  O944    2.006   .     S
Al897  O2482   1.925   1_545 S
Al897  O2553   2.003   1_545 S
Al897  O1878   1.811   .     S
O898   Al1289  1.880   1_455 S
O898   Al1317  1.811   1_455 S
O899   Al1065  1.912   1_455 S
O899   C903    1.226   .     S
O900   C904    1.226   .     D
O901   C903    1.299   .     D
O901   Al1093  2.003   1_455 S
O902   C904    1.281   .     S
O902   Al939   2.006   .     S
C903   C909    1.456   .     S
C904   C910    1.449   .     S
C905   C907    1.434   .     D
C906   C908    1.439   .     T
C906   C1806   1.411   .     S
C907   C910    1.395   .     D
C908   C909    1.357   .     S
C909   C1801   1.412   .     D
Al911  O912    1.880   .     S
Al911  O913    1.912   .     S
Al911  O930    2.006   .     S
Al911  O1796   1.925   .     S
Al911  O1839   2.003   .     S
Al911  O1836   1.811   .     S
O912   Al939   1.811   .     S
O913   C917    1.226   .     S
O914   C918    1.226   .     D
O915   C917    1.299   .     D
O915   Al939   2.003   .     S
O916   C918    1.281   .     S
O916   Al1149  2.006   .     S
C917   C923    1.456   .     S
C918   C924    1.449   .     S
C919   C921    1.434   .     D
C920   C922    1.439   .     T
C920   C1820   1.411   .     S
C921   C924    1.395   .     D
C922   C923    1.357   .     S
C923   C1815   1.412   .     D
Al925  O982    1.880   .     S
Al925  O1655   1.912   1_545 S
Al925  O1588   2.006   1_545 S
Al925  O942    1.925   .     S
Al925  O957    2.003   .     S
Al925  O1626   1.811   1_545 S
O926   Al1093  1.880   1_455 S
O926   Al169   1.811   1_455 S
O927   Al1317  1.912   1_455 S
O927   C931    1.226   .     S
O928   C932    1.226   .     D
O928   Al939   1.925   .     S
O929   C931    1.299   .     D
O929   Al393   2.003   1_455 S
O930   C932    1.281   .     S
C931   C937    1.456   .     S
C932   C938    1.449   .     S
C933   C935    1.434   .     D
C933   C937    1.412   .     D
C934   C936    1.439   .     T
C934   C938    1.411   .     S
C935   C938    1.395   .     D
C936   C937    1.357   .     S
Al939  O940    1.880   .     S
Al939  O941    1.912   .     S
O941   C945    1.226   .     S
O942   C946    1.226   .     D
O943   C945    1.299   .     D
O944   C946    1.281   .     S
C945   C951    1.456   .     S
C946   C952    1.449   .     S
C947   C949    1.434   .     D
C947   C951    1.412   .     D
C948   C950    1.439   .     T
C948   C952    1.411   .     S
C949   C952    1.395   .     D
C950   C951    1.357   .     S
Al953  O1682   1.880   1_545 S
Al953  O1011   1.912   .     S
Al953  O1000   2.006   .     S
Al953  O2538   1.925   1_545 S
Al953  O2609   2.003   1_545 S
Al953  O1934   1.811   .     S
O954   Al1121  1.880   .     S
O954   Al1149  1.811   .     S
O955   C959    1.226   .     S
O956   C960    1.226   .     D
O957   C959    1.299   .     D
O958   C960    1.281   .     S
O958   Al995   2.006   .     S
C959   C965    1.456   .     S
C960   C966    1.449   .     S
C961   C963    1.434   .     D
C962   C964    1.439   .     T
C962   C1862   1.411   .     S
C963   C966    1.395   .     D
C964   C965    1.357   .     S
C965   C1857   1.412   .     D
Al967  O968    1.880   .     S
Al967  O969    1.912   .     S
Al967  O986    2.006   .     S
Al967  O1852   1.925   .     S
Al967  O1895   2.003   .     S
Al967  O1892   1.811   .     S
O968   Al995   1.811   .     S
O969   C973    1.226   .     S
O970   C974    1.226   .     D
O971   C973    1.299   .     D
O971   Al995   2.003   .     S
O972   C974    1.281   .     S
O972   Al1205  2.006   .     S
C973   C979    1.456   .     S
C974   C980    1.449   .     S
C975   C977    1.434   .     D
C976   C978    1.439   .     T
C976   C1876   1.411   .     S
C977   C980    1.395   .     D
C978   C979    1.357   .     S
C979   C1871   1.412   .     D
Al981  O1038   1.880   .     S
Al981  O1711   1.912   1_545 S
Al981  O1644   2.006   1_545 S
Al981  O998    1.925   .     S
Al981  O1013   2.003   .     S
Al981  O1682   1.811   1_545 S
O983   Al1149  1.912   .     S
O983   C987    1.226   .     S
O984   C988    1.226   .     D
O984   Al995   1.925   .     S
O985   C987    1.299   .     D
O986   C988    1.281   .     S
C987   C993    1.456   .     S
C988   C994    1.449   .     S
C989   C991    1.434   .     D
C989   C993    1.412   .     D
C990   C992    1.439   .     T
C990   C994    1.411   .     S
C991   C994    1.395   .     D
C992   C993    1.357   .     S
Al995  O996    1.880   .     S
Al995  O997    1.912   .     S
O997   C1001   1.226   .     S
O998   C1002   1.226   .     D
O999   C1001   1.299   .     D
O1000  C1002   1.281   .     S
C1001  C1007   1.456   .     S
C1002  C1008   1.449   .     S
C1003  C1005   1.434   .     D
C1003  C1007   1.412   .     D
C1004  C1006   1.439   .     T
C1004  C1008   1.411   .     S
C1005  C1008   1.395   .     D
C1006  C1007   1.357   .     S
Al1009 O1738   1.880   1_545 S
Al1009 O1067   1.912   .     S
Al1009 O1056   2.006   .     S
Al1009 O2594   1.925   1_545 S
Al1009 O2665   2.003   1_545 S
Al1009 O1990   1.811   .     S
O1010  Al1177  1.880   .     S
O1010  Al1205  1.811   .     S
O1011  C1015   1.226   .     S
O1012  C1016   1.226   .     D
O1013  C1015   1.299   .     D
O1014  C1016   1.281   .     S
O1014  Al1051  2.006   .     S
C1015  C1021   1.456   .     S
C1016  C1022   1.449   .     S
C1017  C1019   1.434   .     D
C1018  C1020   1.439   .     T
C1018  C1918   1.411   .     S
C1019  C1022   1.395   .     D
C1020  C1021   1.357   .     S
C1021  C1913   1.412   .     D
Al1023 O1024   1.880   .     S
Al1023 O1025   1.912   .     S
Al1023 O1042   2.006   .     S
Al1023 O1908   1.925   .     S
Al1023 O1951   2.003   .     S
Al1023 O1948   1.811   .     S
O1024  Al1051  1.811   .     S
O1025  C1029   1.226   .     S
O1026  C1030   1.226   .     D
O1027  C1029   1.299   .     D
O1027  Al1051  2.003   .     S
O1028  C1030   1.281   .     S
O1028  Al1261  2.006   .     S
C1029  C1035   1.456   .     S
C1030  C1036   1.449   .     S
C1031  C1033   1.434   .     D
C1032  C1034   1.439   .     T
C1032  C1932   1.411   .     S
C1033  C1036   1.395   .     D
C1034  C1035   1.357   .     S
C1035  C1927   1.412   .     D
Al1037 O1094   1.880   .     S
Al1037 O1767   1.912   1_545 S
Al1037 O1700   2.006   1_545 S
Al1037 O1054   1.925   .     S
Al1037 O1069   2.003   .     S
Al1037 O1738   1.811   1_545 S
O1039  Al1205  1.912   .     S
O1039  C1043   1.226   .     S
O1040  C1044   1.226   .     D
O1040  Al1051  1.925   .     S
O1041  C1043   1.299   .     D
O1042  C1044   1.281   .     S
C1043  C1049   1.456   .     S
C1044  C1050   1.449   .     S
C1045  C1047   1.434   .     D
C1045  C1049   1.412   .     D
C1046  C1048   1.439   .     T
C1046  C1050   1.411   .     S
C1047  C1050   1.395   .     D
C1048  C1049   1.357   .     S
Al1051 O1052   1.880   .     S
Al1051 O1053   1.912   .     S
O1053  C1057   1.226   .     S
O1054  C1058   1.226   .     D
O1055  C1057   1.299   .     D
O1056  C1058   1.281   .     S
C1057  C1063   1.456   .     S
C1058  C1064   1.449   .     S
C1059  C1061   1.434   .     D
C1059  C1063   1.412   .     D
C1060  C1062   1.439   .     T
C1060  C1064   1.411   .     S
C1061  C1064   1.395   .     D
C1062  C1063   1.357   .     S
Al1065 O1570   1.880   1_645 S
Al1065 O899    1.912   1_655 S
Al1065 O1112   2.006   .     S
Al1065 O2650   1.925   1_545 S
Al1065 O2497   2.003   1_645 S
Al1065 O1822   1.811   1_655 S
O1066  Al1233  1.880   .     S
O1066  Al1261  1.811   .     S
O1067  C1071   1.226   .     S
O1068  C1072   1.226   .     D
O1069  C1071   1.299   .     D
O1070  C1072   1.281   .     S
O1070  Al1107  2.006   .     S
C1071  C1077   1.456   .     S
C1072  C1078   1.449   .     S
C1073  C1075   1.434   .     D
C1074  C1076   1.439   .     T
C1074  C1974   1.411   .     S
C1075  C1078   1.395   .     D
C1076  C1077   1.357   .     S
C1077  C1969   1.412   .     D
Al1079 O1080   1.880   .     S
Al1079 O1081   1.912   .     S
Al1079 O1098   2.006   .     S
Al1079 O1964   1.925   .     S
Al1079 O2007   2.003   .     S
Al1079 O2004   1.811   .     S
O1080  Al1107  1.811   .     S
O1081  C1085   1.226   .     S
O1082  C1086   1.226   .     D
O1083  C1085   1.299   .     D
O1083  Al1107  2.003   .     S
O1084  C1086   1.281   .     S
O1084  Al1317  2.006   .     S
C1085  C1091   1.456   .     S
C1086  C1092   1.449   .     S
C1087  C1089   1.434   .     D
C1088  C1090   1.439   .     T
C1088  C1988   1.411   .     S
C1089  C1092   1.395   .     D
C1090  C1091   1.357   .     S
C1091  C1983   1.412   .     D
Al1093 O926    1.880   1_655 S
Al1093 O1599   1.912   1_645 S
Al1093 O1756   2.006   1_545 S
Al1093 O1110   1.925   .     S
Al1093 O901    2.003   1_655 S
Al1093 O1570   1.811   1_645 S
O1095  Al1261  1.912   .     S
O1095  C1099   1.226   .     S
O1096  C1100   1.226   .     D
O1096  Al1107  1.925   .     S
O1097  C1099   1.299   .     D
O1098  C1100   1.281   .     S
C1099  C1105   1.456   .     S
C1100  C1106   1.449   .     S
C1101  C1103   1.434   .     D
C1101  C1105   1.412   .     D
C1102  C1104   1.439   .     T
C1102  C1106   1.411   .     S
C1103  C1106   1.395   .     D
C1104  C1105   1.357   .     S
Al1107 O1108   1.880   .     S
Al1107 O1109   1.912   .     S
O1109  C1113   1.226   .     S
O1110  C1114   1.226   .     D
O1111  C1113   1.299   .     D
O1112  C1114   1.281   .     S
C1113  C1119   1.456   .     S
C1114  C1120   1.449   .     S
C1115  C1117   1.434   .     D
C1115  C1119   1.412   .     D
C1116  C1118   1.439   .     T
C1116  C1120   1.411   .     S
C1117  C1120   1.395   .     D
C1118  C1119   1.357   .     S
Al1121 O1179   1.912   .     S
Al1121 O1168   2.006   .     S
Al1121 O1810   1.925   .     S
Al1121 O1881   2.003   .     S
Al1121 O2102   1.811   .     S
O1122  Al1513  1.880   1_455 S
O1122  Al1541  1.811   1_455 S
O1123  Al1289  1.912   1_455 S
O1123  C1127   1.226   .     S
O1124  C1128   1.226   .     D
O1125  C1127   1.299   .     D
O1125  Al1317  2.003   1_455 S
O1126  C1128   1.281   .     S
O1126  Al1163  2.006   .     S
C1127  C1133   1.456   .     S
C1128  C1134   1.449   .     S
C1129  C1131   1.434   .     D
C1130  C1132   1.439   .     T
C1130  C2030   1.411   .     S
C1131  C1134   1.395   .     D
C1132  C1133   1.357   .     S
C1133  C2025   1.412   .     D
Al1135 O1136   1.880   .     S
Al1135 O1137   1.912   .     S
Al1135 O1154   2.006   .     S
Al1135 O2020   1.925   .     S
Al1135 O2063   2.003   .     S
Al1135 O2060   1.811   .     S
O1136  Al1163  1.811   .     S
O1137  C1141   1.226   .     S
O1138  C1142   1.226   .     D
O1139  C1141   1.299   .     D
O1139  Al1163  2.003   .     S
O1140  C1142   1.281   .     S
O1140  Al1373  2.006   .     S
C1141  C1147   1.456   .     S
C1142  C1148   1.449   .     S
C1143  C1145   1.434   .     D
C1144  C1146   1.439   .     T
C1144  C2044   1.411   .     S
C1145  C1148   1.395   .     D
C1146  C1147   1.357   .     S
C1147  C2039   1.412   .     D
Al1149 O1206   1.880   .     S
Al1149 O1166   1.925   .     S
Al1149 O1181   2.003   .     S
O1150  Al1317  1.880   1_455 S
O1150  Al393   1.811   1_455 S
O1151  Al1541  1.912   1_455 S
O1151  C1155   1.226   .     S
O1152  C1156   1.226   .     D
O1152  Al1163  1.925   .     S
O1153  C1155   1.299   .     D
O1153  Al617   2.003   1_455 S
O1154  C1156   1.281   .     S
C1155  C1161   1.456   .     S
C1156  C1162   1.449   .     S
C1157  C1159   1.434   .     D
C1157  C1161   1.412   .     D
C1158  C1160   1.439   .     T
C1158  C1162   1.411   .     S
C1159  C1162   1.395   .     D
C1160  C1161   1.357   .     S
Al1163 O1164   1.880   .     S
Al1163 O1165   1.912   .     S
O1165  C1169   1.226   .     S
O1166  C1170   1.226   .     D
O1167  C1169   1.299   .     D
O1168  C1170   1.281   .     S
C1169  C1175   1.456   .     S
C1170  C1176   1.449   .     S
C1171  C1173   1.434   .     D
C1171  C1175   1.412   .     D
C1172  C1174   1.439   .     T
C1172  C1176   1.411   .     S
C1173  C1176   1.395   .     D
C1174  C1175   1.357   .     S
Al1177 O1235   1.912   .     S
Al1177 O1224   2.006   .     S
Al1177 O1866   1.925   .     S
Al1177 O1937   2.003   .     S
Al1177 O2158   1.811   .     S
O1178  Al1345  1.880   .     S
O1178  Al1373  1.811   .     S
O1179  C1183   1.226   .     S
O1180  C1184   1.226   .     D
O1181  C1183   1.299   .     D
O1182  C1184   1.281   .     S
O1182  Al1219  2.006   .     S
C1183  C1189   1.456   .     S
C1184  C1190   1.449   .     S
C1185  C1187   1.434   .     D
C1186  C1188   1.439   .     T
C1186  C2086   1.411   .     S
C1187  C1190   1.395   .     D
C1188  C1189   1.357   .     S
C1189  C2081   1.412   .     D
Al1191 O1192   1.880   .     S
Al1191 O1193   1.912   .     S
Al1191 O1210   2.006   .     S
Al1191 O2076   1.925   .     S
Al1191 O2119   2.003   .     S
Al1191 O2116   1.811   .     S
O1192  Al1219  1.811   .     S
O1193  C1197   1.226   .     S
O1194  C1198   1.226   .     D
O1195  C1197   1.299   .     D
O1195  Al1219  2.003   .     S
O1196  C1198   1.281   .     S
O1196  Al1429  2.006   .     S
C1197  C1203   1.456   .     S
C1198  C1204   1.449   .     S
C1199  C1201   1.434   .     D
C1200  C1202   1.439   .     T
C1200  C2100   1.411   .     S
C1201  C1204   1.395   .     D
C1202  C1203   1.357   .     S
C1203  C2095   1.412   .     D
Al1205 O1262   1.880   .     S
Al1205 O1222   1.925   .     S
Al1205 O1237   2.003   .     S
O1207  Al1373  1.912   .     S
O1207  C1211   1.226   .     S
O1208  C1212   1.226   .     D
O1208  Al1219  1.925   .     S
O1209  C1211   1.299   .     D
O1210  C1212   1.281   .     S
C1211  C1217   1.456   .     S
C1212  C1218   1.449   .     S
C1213  C1215   1.434   .     D
C1213  C1217   1.412   .     D
C1214  C1216   1.439   .     T
C1214  C1218   1.411   .     S
C1215  C1218   1.395   .     D
C1216  C1217   1.357   .     S
Al1219 O1220   1.880   .     S
Al1219 O1221   1.912   .     S
O1221  C1225   1.226   .     S
O1222  C1226   1.226   .     D
O1223  C1225   1.299   .     D
O1224  C1226   1.281   .     S
C1225  C1231   1.456   .     S
C1226  C1232   1.449   .     S
C1227  C1229   1.434   .     D
C1227  C1231   1.412   .     D
C1228  C1230   1.439   .     T
C1228  C1232   1.411   .     S
C1229  C1232   1.395   .     D
C1230  C1231   1.357   .     S
Al1233 O1291   1.912   .     S
Al1233 O1280   2.006   .     S
Al1233 O1922   1.925   .     S
Al1233 O1993   2.003   .     S
Al1233 O2214   1.811   .     S
O1234  Al1401  1.880   .     S
O1234  Al1429  1.811   .     S
O1235  C1239   1.226   .     S
O1236  C1240   1.226   .     D
O1237  C1239   1.299   .     D
O1238  C1240   1.281   .     S
O1238  Al1275  2.006   .     S
C1239  C1245   1.456   .     S
C1240  C1246   1.449   .     S
C1241  C1243   1.434   .     D
C1242  C1244   1.439   .     T
C1242  C2142   1.411   .     S
C1243  C1246   1.395   .     D
C1244  C1245   1.357   .     S
C1245  C2137   1.412   .     D
Al1247 O1248   1.880   .     S
Al1247 O1249   1.912   .     S
Al1247 O1266   2.006   .     S
Al1247 O2132   1.925   .     S
Al1247 O2175   2.003   .     S
Al1247 O2172   1.811   .     S
O1248  Al1275  1.811   .     S
O1249  C1253   1.226   .     S
O1250  C1254   1.226   .     D
O1251  C1253   1.299   .     D
O1251  Al1275  2.003   .     S
O1252  C1254   1.281   .     S
O1252  Al1485  2.006   .     S
C1253  C1259   1.456   .     S
C1254  C1260   1.449   .     S
C1255  C1257   1.434   .     D
C1256  C1258   1.439   .     T
C1256  C2156   1.411   .     S
C1257  C1260   1.395   .     D
C1258  C1259   1.357   .     S
C1259  C2151   1.412   .     D
Al1261 O1318   1.880   .     S
Al1261 O1278   1.925   .     S
Al1261 O1293   2.003   .     S
O1263  Al1429  1.912   .     S
O1263  C1267   1.226   .     S
O1264  C1268   1.226   .     D
O1264  Al1275  1.925   .     S
O1265  C1267   1.299   .     D
O1266  C1268   1.281   .     S
C1267  C1273   1.456   .     S
C1268  C1274   1.449   .     S
C1269  C1271   1.434   .     D
C1269  C1273   1.412   .     D
C1270  C1272   1.439   .     T
C1270  C1274   1.411   .     S
C1271  C1274   1.395   .     D
C1272  C1273   1.357   .     S
Al1275 O1276   1.880   .     S
Al1275 O1277   1.912   .     S
O1277  C1281   1.226   .     S
O1278  C1282   1.226   .     D
O1279  C1281   1.299   .     D
O1280  C1282   1.281   .     S
C1281  C1287   1.456   .     S
C1282  C1288   1.449   .     S
C1283  C1285   1.434   .     D
C1283  C1287   1.412   .     D
C1284  C1286   1.439   .     T
C1284  C1288   1.411   .     S
C1285  C1288   1.395   .     D
C1286  C1287   1.357   .     S
Al1289 O898    1.880   1_655 S
Al1289 O1123   1.912   1_655 S
Al1289 O1336   2.006   .     S
Al1289 O1978   1.925   .     S
Al1289 O1825   2.003   1_655 S
Al1289 O2046   1.811   1_655 S
O1290  Al1457  1.880   .     S
O1290  Al1485  1.811   .     S
O1291  C1295   1.226   .     S
O1292  C1296   1.226   .     D
O1293  C1295   1.299   .     D
O1294  C1296   1.281   .     S
O1294  Al1331  2.006   .     S
C1295  C1301   1.456   .     S
C1296  C1302   1.449   .     S
C1297  C1299   1.434   .     D
C1298  C1300   1.439   .     T
C1298  C2198   1.411   .     S
C1299  C1302   1.395   .     D
C1300  C1301   1.357   .     S
C1301  C2193   1.412   .     D
Al1303 O1304   1.880   .     S
Al1303 O1305   1.912   .     S
Al1303 O1322   2.006   .     S
Al1303 O2188   1.925   .     S
Al1303 O2231   2.003   .     S
Al1303 O2228   1.811   .     S
O1304  Al1331  1.811   .     S
O1305  C1309   1.226   .     S
O1306  C1310   1.226   .     D
O1307  C1309   1.299   .     D
O1307  Al1331  2.003   .     S
O1308  C1310   1.281   .     S
O1308  Al1541  2.006   .     S
C1309  C1315   1.456   .     S
C1310  C1316   1.449   .     S
C1311  C1313   1.434   .     D
C1312  C1314   1.439   .     T
C1312  C2212   1.411   .     S
C1313  C1316   1.395   .     D
C1314  C1315   1.357   .     S
C1315  C2207   1.412   .     D
Al1317 O1150   1.880   1_655 S
Al1317 O927    1.912   1_655 S
Al1317 O1334   1.925   .     S
Al1317 O1125   2.003   1_655 S
Al1317 O898    1.811   1_655 S
O1319  Al1485  1.912   .     S
O1319  C1323   1.226   .     S
O1320  C1324   1.226   .     D
O1320  Al1331  1.925   .     S
O1321  C1323   1.299   .     D
O1322  C1324   1.281   .     S
C1323  C1329   1.456   .     S
C1324  C1330   1.449   .     S
C1325  C1327   1.434   .     D
C1325  C1329   1.412   .     D
C1326  C1328   1.439   .     T
C1326  C1330   1.411   .     S
C1327  C1330   1.395   .     D
C1328  C1329   1.357   .     S
Al1331 O1332   1.880   .     S
Al1331 O1333   1.912   .     S
O1333  C1337   1.226   .     S
O1334  C1338   1.226   .     D
O1335  C1337   1.299   .     D
O1336  C1338   1.281   .     S
C1337  C1343   1.456   .     S
C1338  C1344   1.449   .     S
C1339  C1341   1.434   .     D
C1339  C1343   1.412   .     D
C1340  C1342   1.439   .     T
C1340  C1344   1.411   .     S
C1341  C1344   1.395   .     D
C1342  C1343   1.357   .     S
Al1345 O1403   1.912   .     S
Al1345 O1392   2.006   .     S
Al1345 O2034   1.925   .     S
Al1345 O2105   2.003   .     S
Al1345 O2326   1.811   .     S
O1346  Al1737  1.880   1_455 S
O1346  Al1765  1.811   1_455 S
O1347  Al1513  1.912   1_455 S
O1347  C1351   1.226   .     S
O1348  C1352   1.226   .     D
O1349  C1351   1.299   .     D
O1349  Al1541  2.003   1_455 S
O1350  C1352   1.281   .     S
O1350  Al1387  2.006   .     S
C1351  C1357   1.456   .     S
C1352  C1358   1.449   .     S
C1353  C1355   1.434   .     D
C1354  C1356   1.439   .     T
C1354  C2254   1.411   .     S
C1355  C1358   1.395   .     D
C1356  C1357   1.357   .     S
C1357  C2249   1.412   .     D
Al1359 O1360   1.880   .     S
Al1359 O1361   1.912   .     S
Al1359 O1378   2.006   .     S
Al1359 O2244   1.925   .     S
Al1359 O2287   2.003   .     S
Al1359 O2284   1.811   .     S
O1360  Al1387  1.811   .     S
O1361  C1365   1.226   .     S
O1362  C1366   1.226   .     D
O1363  C1365   1.299   .     D
O1363  Al1387  2.003   .     S
O1364  C1366   1.281   .     S
O1364  Al1597  2.006   .     S
C1365  C1371   1.456   .     S
C1366  C1372   1.449   .     S
C1367  C1369   1.434   .     D
C1368  C1370   1.439   .     T
C1368  C2268   1.411   .     S
C1369  C1372   1.395   .     D
C1370  C1371   1.357   .     S
C1371  C2263   1.412   .     D
Al1373 O1430   1.880   .     S
Al1373 O1390   1.925   .     S
Al1373 O1405   2.003   .     S
O1374  Al1541  1.880   1_455 S
O1374  Al617   1.811   1_455 S
O1375  Al1765  1.912   1_455 S
O1375  C1379   1.226   .     S
O1376  C1380   1.226   .     D
O1376  Al1387  1.925   .     S
O1377  C1379   1.299   .     D
O1377  Al841   2.003   1_455 S
O1378  C1380   1.281   .     S
C1379  C1385   1.456   .     S
C1380  C1386   1.449   .     S
C1381  C1383   1.434   .     D
C1381  C1385   1.412   .     D
C1382  C1384   1.439   .     T
C1382  C1386   1.411   .     S
C1383  C1386   1.395   .     D
C1384  C1385   1.357   .     S
Al1387 O1388   1.880   .     S
Al1387 O1389   1.912   .     S
O1389  C1393   1.226   .     S
O1390  C1394   1.226   .     D
O1391  C1393   1.299   .     D
O1392  C1394   1.281   .     S
C1393  C1399   1.456   .     S
C1394  C1400   1.449   .     S
C1395  C1397   1.434   .     D
C1395  C1399   1.412   .     D
C1396  C1398   1.439   .     T
C1396  C1400   1.411   .     S
C1397  C1400   1.395   .     D
C1398  C1399   1.357   .     S
Al1401 O1459   1.912   .     S
Al1401 O1448   2.006   .     S
Al1401 O2090   1.925   .     S
Al1401 O2161   2.003   .     S
Al1401 O2382   1.811   .     S
O1402  Al1569  1.880   .     S
O1402  Al1597  1.811   .     S
O1403  C1407   1.226   .     S
O1404  C1408   1.226   .     D
O1405  C1407   1.299   .     D
O1406  C1408   1.281   .     S
O1406  Al1443  2.006   .     S
C1407  C1413   1.456   .     S
C1408  C1414   1.449   .     S
C1409  C1411   1.434   .     D
C1410  C1412   1.439   .     T
C1410  C2310   1.411   .     S
C1411  C1414   1.395   .     D
C1412  C1413   1.357   .     S
C1413  C2305   1.412   .     D
Al1415 O1416   1.880   .     S
Al1415 O1417   1.912   .     S
Al1415 O1434   2.006   .     S
Al1415 O2300   1.925   .     S
Al1415 O2343   2.003   .     S
Al1415 O2340   1.811   .     S
O1416  Al1443  1.811   .     S
O1417  C1421   1.226   .     S
O1418  C1422   1.226   .     D
O1419  C1421   1.299   .     D
O1419  Al1443  2.003   .     S
O1420  C1422   1.281   .     S
O1420  Al1653  2.006   .     S
C1421  C1427   1.456   .     S
C1422  C1428   1.449   .     S
C1423  C1425   1.434   .     D
C1424  C1426   1.439   .     T
C1424  C2324   1.411   .     S
C1425  C1428   1.395   .     D
C1426  C1427   1.357   .     S
C1427  C2319   1.412   .     D
Al1429 O1486   1.880   .     S
Al1429 O1446   1.925   .     S
Al1429 O1461   2.003   .     S
O1431  Al1597  1.912   .     S
O1431  C1435   1.226   .     S
O1432  C1436   1.226   .     D
O1432  Al1443  1.925   .     S
O1433  C1435   1.299   .     D
O1434  C1436   1.281   .     S
C1435  C1441   1.456   .     S
C1436  C1442   1.449   .     S
C1437  C1439   1.434   .     D
C1437  C1441   1.412   .     D
C1438  C1440   1.439   .     T
C1438  C1442   1.411   .     S
C1439  C1442   1.395   .     D
C1440  C1441   1.357   .     S
Al1443 O1444   1.880   .     S
Al1443 O1445   1.912   .     S
O1445  C1449   1.226   .     S
O1446  C1450   1.226   .     D
O1447  C1449   1.299   .     D
O1448  C1450   1.281   .     S
C1449  C1455   1.456   .     S
C1450  C1456   1.449   .     S
C1451  C1453   1.434   .     D
C1451  C1455   1.412   .     D
C1452  C1454   1.439   .     T
C1452  C1456   1.411   .     S
C1453  C1456   1.395   .     D
C1454  C1455   1.357   .     S
Al1457 O1515   1.912   .     S
Al1457 O1504   2.006   .     S
Al1457 O2146   1.925   .     S
Al1457 O2217   2.003   .     S
Al1457 O2438   1.811   .     S
O1458  Al1625  1.880   .     S
O1458  Al1653  1.811   .     S
O1459  C1463   1.226   .     S
O1460  C1464   1.226   .     D
O1461  C1463   1.299   .     D
O1462  C1464   1.281   .     S
O1462  Al1499  2.006   .     S
C1463  C1469   1.456   .     S
C1464  C1470   1.449   .     S
C1465  C1467   1.434   .     D
C1466  C1468   1.439   .     T
C1466  C2366   1.411   .     S
C1467  C1470   1.395   .     D
C1468  C1469   1.357   .     S
C1469  C2361   1.412   .     D
Al1471 O1472   1.880   .     S
Al1471 O1473   1.912   .     S
Al1471 O1490   2.006   .     S
Al1471 O2356   1.925   .     S
Al1471 O2399   2.003   .     S
Al1471 O2396   1.811   .     S
O1472  Al1499  1.811   .     S
O1473  C1477   1.226   .     S
O1474  C1478   1.226   .     D
O1475  C1477   1.299   .     D
O1475  Al1499  2.003   .     S
O1476  C1478   1.281   .     S
O1476  Al1709  2.006   .     S
C1477  C1483   1.456   .     S
C1478  C1484   1.449   .     S
C1479  C1481   1.434   .     D
C1480  C1482   1.439   .     T
C1480  C2380   1.411   .     S
C1481  C1484   1.395   .     D
C1482  C1483   1.357   .     S
C1483  C2375   1.412   .     D
Al1485 O1542   1.880   .     S
Al1485 O1502   1.925   .     S
Al1485 O1517   2.003   .     S
O1487  Al1653  1.912   .     S
O1487  C1491   1.226   .     S
O1488  C1492   1.226   .     D
O1488  Al1499  1.925   .     S
O1489  C1491   1.299   .     D
O1490  C1492   1.281   .     S
C1491  C1497   1.456   .     S
C1492  C1498   1.449   .     S
C1493  C1495   1.434   .     D
C1493  C1497   1.412   .     D
C1494  C1496   1.439   .     T
C1494  C1498   1.411   .     S
C1495  C1498   1.395   .     D
C1496  C1497   1.357   .     S
Al1499 O1500   1.880   .     S
Al1499 O1501   1.912   .     S
O1501  C1505   1.226   .     S
O1502  C1506   1.226   .     D
O1503  C1505   1.299   .     D
O1504  C1506   1.281   .     S
C1505  C1511   1.456   .     S
C1506  C1512   1.449   .     S
C1507  C1509   1.434   .     D
C1507  C1511   1.412   .     D
C1508  C1510   1.439   .     T
C1508  C1512   1.411   .     S
C1509  C1512   1.395   .     D
C1510  C1511   1.357   .     S
Al1513 O1122   1.880   1_655 S
Al1513 O1347   1.912   1_655 S
Al1513 O1560   2.006   .     S
Al1513 O2202   1.925   .     S
Al1513 O2049   2.003   1_655 S
Al1513 O2270   1.811   1_655 S
O1514  Al1681  1.880   .     S
O1514  Al1709  1.811   .     S
O1515  C1519   1.226   .     S
O1516  C1520   1.226   .     D
O1517  C1519   1.299   .     D
O1518  C1520   1.281   .     S
O1518  Al1555  2.006   .     S
C1519  C1525   1.456   .     S
C1520  C1526   1.449   .     S
C1521  C1523   1.434   .     D
C1522  C1524   1.439   .     T
C1522  C2422   1.411   .     S
C1523  C1526   1.395   .     D
C1524  C1525   1.357   .     S
C1525  C2417   1.412   .     D
Al1527 O1528   1.880   .     S
Al1527 O1529   1.912   .     S
Al1527 O1546   2.006   .     S
Al1527 O2412   1.925   .     S
Al1527 O2455   2.003   .     S
Al1527 O2452   1.811   .     S
O1528  Al1555  1.811   .     S
O1529  C1533   1.226   .     S
O1530  C1534   1.226   .     D
O1531  C1533   1.299   .     D
O1531  Al1555  2.003   .     S
O1532  C1534   1.281   .     S
O1532  Al1765  2.006   .     S
C1533  C1539   1.456   .     S
C1534  C1540   1.449   .     S
C1535  C1537   1.434   .     D
C1536  C1538   1.439   .     T
C1536  C2436   1.411   .     S
C1537  C1540   1.395   .     D
C1538  C1539   1.357   .     S
C1539  C2431   1.412   .     D
Al1541 O1374   1.880   1_655 S
Al1541 O1151   1.912   1_655 S
Al1541 O1558   1.925   .     S
Al1541 O1349   2.003   1_655 S
Al1541 O1122   1.811   1_655 S
O1543  Al1709  1.912   .     S
O1543  C1547   1.226   .     S
O1544  C1548   1.226   .     D
O1544  Al1555  1.925   .     S
O1545  C1547   1.299   .     D
O1546  C1548   1.281   .     S
C1547  C1553   1.456   .     S
C1548  C1554   1.449   .     S
C1549  C1551   1.434   .     D
C1549  C1553   1.412   .     D
C1550  C1552   1.439   .     T
C1550  C1554   1.411   .     S
C1551  C1554   1.395   .     D
C1552  C1553   1.357   .     S
Al1555 O1556   1.880   .     S
Al1555 O1557   1.912   .     S
O1557  C1561   1.226   .     S
O1558  C1562   1.226   .     D
O1559  C1561   1.299   .     D
O1560  C1562   1.281   .     S
C1561  C1567   1.456   .     S
C1562  C1568   1.449   .     S
C1563  C1565   1.434   .     D
C1563  C1567   1.412   .     D
C1564  C1566   1.439   .     T
C1564  C1568   1.411   .     S
C1565  C1568   1.395   .     D
C1566  C1567   1.357   .     S
Al1569 O1627   1.912   .     S
Al1569 O1616   2.006   .     S
Al1569 O2258   1.925   .     S
Al1569 O2329   2.003   .     S
Al1569 O2550   1.811   .     S
O1570  Al1065  1.880   1_465 S
O1570  Al1093  1.811   1_465 S
O1571  Al1737  1.912   1_455 S
O1571  C1575   1.226   .     S
O1572  C1576   1.226   .     D
O1573  C1575   1.299   .     D
O1573  Al1765  2.003   1_455 S
O1574  C1576   1.281   .     S
O1574  Al1611  2.006   .     S
C1575  C1581   1.456   .     S
C1576  C1582   1.449   .     S
C1577  C1579   1.434   .     D
C1578  C1580   1.439   .     T
C1578  C2478   1.411   .     S
C1579  C1582   1.395   .     D
C1580  C1581   1.357   .     S
C1581  C2473   1.412   .     D
Al1583 O1584   1.880   .     S
Al1583 O1585   1.912   .     S
Al1583 O1602   2.006   .     S
Al1583 O2468   1.925   .     S
Al1583 O2511   2.003   .     S
Al1583 O2508   1.811   .     S
O1584  Al1611  1.811   .     S
O1585  C1589   1.226   .     S
O1586  C1590   1.226   .     D
O1586  Al1     1.925   1_565 S
O1587  C1589   1.299   .     D
O1587  Al1611  2.003   .     S
O1588  C1590   1.281   .     S
O1588  Al925   2.006   1_565 S
C1589  C1595   1.456   .     S
C1590  C1596   1.449   .     S
C1591  C1593   1.434   .     D
C1592  C1594   1.439   .     T
C1592  C2492   1.411   .     S
C1593  C1596   1.395   .     D
C1594  C1595   1.357   .     S
C1595  C2487   1.412   .     D
Al1597 O1654   1.880   .     S
Al1597 O1614   1.925   .     S
Al1597 O1629   2.003   .     S
O1598  Al1765  1.880   1_455 S
O1598  Al841   1.811   1_455 S
O1599  Al1093  1.912   1_465 S
O1599  C1603   1.226   .     S
O1600  C1604   1.226   .     D
O1600  Al1611  1.925   .     S
O1601  C1603   1.299   .     D
O1601  Al169   2.003   1_465 S
O1602  C1604   1.281   .     S
C1603  C1609   1.456   .     S
C1604  C1610   1.449   .     S
C1605  C1607   1.434   .     D
C1605  C1609   1.412   .     D
C1606  C1608   1.439   .     T
C1606  C1610   1.411   .     S
C1607  C1610   1.395   .     D
C1608  C1609   1.357   .     S
Al1611 O1612   1.880   .     S
Al1611 O1613   1.912   .     S
O1613  C1617   1.226   .     S
O1614  C1618   1.226   .     D
O1615  C1617   1.299   .     D
O1616  C1618   1.281   .     S
C1617  C1623   1.456   .     S
C1618  C1624   1.449   .     S
C1619  C1621   1.434   .     D
C1619  C1623   1.412   .     D
C1620  C1622   1.439   .     T
C1620  C1624   1.411   .     S
C1621  C1624   1.395   .     D
C1622  C1623   1.357   .     S
Al1625 O1683   1.912   .     S
Al1625 O1672   2.006   .     S
Al1625 O2314   1.925   .     S
Al1625 O2385   2.003   .     S
Al1625 O2606   1.811   .     S
O1626  Al897   1.880   1_565 S
O1626  Al925   1.811   1_565 S
O1627  C1631   1.226   .     S
O1628  C1632   1.226   .     D
O1629  C1631   1.299   .     D
O1630  C1632   1.281   .     S
O1630  Al1667  2.006   .     S
C1631  C1637   1.456   .     S
C1632  C1638   1.449   .     S
C1633  C1635   1.434   .     D
C1634  C1636   1.439   .     T
C1634  C2534   1.411   .     S
C1635  C1638   1.395   .     D
C1636  C1637   1.357   .     S
C1637  C2529   1.412   .     D
Al1639 O1640   1.880   .     S
Al1639 O1641   1.912   .     S
Al1639 O1658   2.006   .     S
Al1639 O2524   1.925   .     S
Al1639 O2567   2.003   .     S
Al1639 O2564   1.811   .     S
O1640  Al1667  1.811   .     S
O1641  C1645   1.226   .     S
O1642  C1646   1.226   .     D
O1642  Al57    1.925   1_565 S
O1643  C1645   1.299   .     D
O1643  Al1667  2.003   .     S
O1644  C1646   1.281   .     S
O1644  Al981   2.006   1_565 S
C1645  C1651   1.456   .     S
C1646  C1652   1.449   .     S
C1647  C1649   1.434   .     D
C1648  C1650   1.439   .     T
C1648  C2548   1.411   .     S
C1649  C1652   1.395   .     D
C1650  C1651   1.357   .     S
C1651  C2543   1.412   .     D
Al1653 O1710   1.880   .     S
Al1653 O1670   1.925   .     S
Al1653 O1685   2.003   .     S
O1655  Al925   1.912   1_565 S
O1655  C1659   1.226   .     S
O1656  C1660   1.226   .     D
O1656  Al1667  1.925   .     S
O1657  C1659   1.299   .     D
O1657  Al1     2.003   1_565 S
O1658  C1660   1.281   .     S
C1659  C1665   1.456   .     S
C1660  C1666   1.449   .     S
C1661  C1663   1.434   .     D
C1661  C1665   1.412   .     D
C1662  C1664   1.439   .     T
C1662  C1666   1.411   .     S
C1663  C1666   1.395   .     D
C1664  C1665   1.357   .     S
Al1667 O1668   1.880   .     S
Al1667 O1669   1.912   .     S
O1669  C1673   1.226   .     S
O1670  C1674   1.226   .     D
O1671  C1673   1.299   .     D
O1672  C1674   1.281   .     S
C1673  C1679   1.456   .     S
C1674  C1680   1.449   .     S
C1675  C1677   1.434   .     D
C1675  C1679   1.412   .     D
C1676  C1678   1.439   .     T
C1676  C1680   1.411   .     S
C1677  C1680   1.395   .     D
C1678  C1679   1.357   .     S
Al1681 O1739   1.912   .     S
Al1681 O1728   2.006   .     S
Al1681 O2370   1.925   .     S
Al1681 O2441   2.003   .     S
Al1681 O2662   1.811   .     S
O1682  Al953   1.880   1_565 S
O1682  Al981   1.811   1_565 S
O1683  C1687   1.226   .     S
O1684  C1688   1.226   .     D
O1685  C1687   1.299   .     D
O1686  C1688   1.281   .     S
O1686  Al1723  2.006   .     S
C1687  C1693   1.456   .     S
C1688  C1694   1.449   .     S
C1689  C1691   1.434   .     D
C1690  C1692   1.439   .     T
C1690  C2590   1.411   .     S
C1691  C1694   1.395   .     D
C1692  C1693   1.357   .     S
C1693  C2585   1.412   .     D
Al1695 O1696   1.880   .     S
Al1695 O1697   1.912   .     S
Al1695 O1714   2.006   .     S
Al1695 O2580   1.925   .     S
Al1695 O2623   2.003   .     S
Al1695 O2620   1.811   .     S
O1696  Al1723  1.811   .     S
O1697  C1701   1.226   .     S
O1698  C1702   1.226   .     D
O1698  Al113   1.925   1_565 S
O1699  C1701   1.299   .     D
O1699  Al1723  2.003   .     S
O1700  C1702   1.281   .     S
O1700  Al1037  2.006   1_565 S
C1701  C1707   1.456   .     S
C1702  C1708   1.449   .     S
C1703  C1705   1.434   .     D
C1704  C1706   1.439   .     T
C1704  C2604   1.411   .     S
C1705  C1708   1.395   .     D
C1706  C1707   1.357   .     S
C1707  C2599   1.412   .     D
Al1709 O1766   1.880   .     S
Al1709 O1726   1.925   .     S
Al1709 O1741   2.003   .     S
O1711  Al981   1.912   1_565 S
O1711  C1715   1.226   .     S
O1712  C1716   1.226   .     D
O1712  Al1723  1.925   .     S
O1713  C1715   1.299   .     D
O1713  Al57    2.003   1_565 S
O1714  C1716   1.281   .     S
C1715  C1721   1.456   .     S
C1716  C1722   1.449   .     S
C1717  C1719   1.434   .     D
C1717  C1721   1.412   .     D
C1718  C1720   1.439   .     T
C1718  C1722   1.411   .     S
C1719  C1722   1.395   .     D
C1720  C1721   1.357   .     S
Al1723 O1724   1.880   .     S
Al1723 O1725   1.912   .     S
O1725  C1729   1.226   .     S
O1726  C1730   1.226   .     D
O1727  C1729   1.299   .     D
O1728  C1730   1.281   .     S
C1729  C1735   1.456   .     S
C1730  C1736   1.449   .     S
C1731  C1733   1.434   .     D
C1731  C1735   1.412   .     D
C1732  C1734   1.439   .     T
C1732  C1736   1.411   .     S
C1733  C1736   1.395   .     D
C1734  C1735   1.357   .     S
Al1737 O1346   1.880   1_655 S
Al1737 O1571   1.912   1_655 S
Al1737 O1784   2.006   .     S
Al1737 O2426   1.925   .     S
Al1737 O2273   2.003   1_655 S
Al1737 O2494   1.811   1_655 S
O1738  Al1009  1.880   1_565 S
O1738  Al1037  1.811   1_565 S
O1739  C1743   1.226   .     S
O1740  C1744   1.226   .     D
O1741  C1743   1.299   .     D
O1742  C1744   1.281   .     S
O1742  Al1779  2.006   .     S
C1743  C1749   1.456   .     S
C1744  C1750   1.449   .     S
C1745  C1747   1.434   .     D
C1746  C1748   1.439   .     T
C1746  C2646   1.411   .     S
C1747  C1750   1.395   .     D
C1748  C1749   1.357   .     S
C1749  C2641   1.412   .     D
Al1751 O1752   1.880   .     S
Al1751 O1753   1.912   .     S
Al1751 O1770   2.006   .     S
Al1751 O2636   1.925   .     S
Al1751 O2679   2.003   .     S
Al1751 O2676   1.811   .     S
O1752  Al1779  1.811   .     S
O1753  C1757   1.226   .     S
O1754  C1758   1.226   .     D
O1754  Al169   1.925   1_565 S
O1755  C1757   1.299   .     D
O1755  Al1779  2.003   .     S
O1756  C1758   1.281   .     S
O1756  Al1093  2.006   1_565 S
C1757  C1763   1.456   .     S
C1758  C1764   1.449   .     S
C1759  C1761   1.434   .     D
C1760  C1762   1.439   .     T
C1760  C2660   1.411   .     S
C1761  C1764   1.395   .     D
C1762  C1763   1.357   .     S
C1763  C2655   1.412   .     D
Al1765 O1598   1.880   1_655 S
Al1765 O1375   1.912   1_655 S
Al1765 O1782   1.925   .     S
Al1765 O1573   2.003   1_655 S
Al1765 O1346   1.811   1_655 S
O1767  Al1037  1.912   1_565 S
O1767  C1771   1.226   .     S
O1768  C1772   1.226   .     D
O1768  Al1779  1.925   .     S
O1769  C1771   1.299   .     D
O1769  Al113   2.003   1_565 S
O1770  C1772   1.281   .     S
C1771  C1777   1.456   .     S
C1772  C1778   1.449   .     S
C1773  C1775   1.434   .     D
C1773  C1777   1.412   .     D
C1774  C1776   1.439   .     T
C1774  C1778   1.411   .     S
C1775  C1778   1.395   .     D
C1776  C1777   1.357   .     S
Al1779 O1780   1.880   .     S
Al1779 O1781   1.912   .     S
O1781  C1785   1.226   .     S
O1782  C1786   1.226   .     D
O1783  C1785   1.299   .     D
O1784  C1786   1.281   .     S
C1785  C1791   1.456   .     S
C1786  C1792   1.449   .     S
C1787  C1789   1.434   .     D
C1787  C1791   1.412   .     D
C1788  C1790   1.439   .     T
C1788  C1792   1.411   .     S
C1789  C1792   1.395   .     D
C1790  C1791   1.357   .     S
Al1793 O2522   1.880   1_545 S
Al1793 O1851   1.912   .     S
Al1793 O1840   2.006   .     S
Al1793 O3378   1.925   1_545 S
Al1793 O3449   2.003   1_545 S
Al1793 O2774   1.811   .     S
O1794  Al2185  1.880   1_455 S
O1794  Al2213  1.811   1_455 S
O1795  Al1961  1.912   1_455 S
O1795  C1799   1.226   .     S
O1796  C1800   1.226   .     D
O1797  C1799   1.299   .     D
O1797  Al1989  2.003   1_455 S
O1798  C1800   1.281   .     S
O1798  Al1835  2.006   .     S
C1799  C1805   1.456   .     S
C1800  C1806   1.449   .     S
C1801  C1803   1.434   .     D
C1802  C1804   1.439   .     T
C1802  C2702   1.411   .     S
C1803  C1806   1.395   .     D
C1804  C1805   1.357   .     S
C1805  C2697   1.412   .     D
Al1807 O1808   1.880   .     S
Al1807 O1809   1.912   .     S
Al1807 O1826   2.006   .     S
Al1807 O2692   1.925   .     S
Al1807 O2735   2.003   .     S
Al1807 O2732   1.811   .     S
O1808  Al1835  1.811   .     S
O1809  C1813   1.226   .     S
O1810  C1814   1.226   .     D
O1811  C1813   1.299   .     D
O1811  Al1835  2.003   .     S
O1812  C1814   1.281   .     S
O1812  Al2045  2.006   .     S
C1813  C1819   1.456   .     S
C1814  C1820   1.449   .     S
C1815  C1817   1.434   .     D
C1816  C1818   1.439   .     T
C1816  C2716   1.411   .     S
C1817  C1820   1.395   .     D
C1818  C1819   1.357   .     S
C1819  C2711   1.412   .     D
Al1821 O1878   1.880   .     S
Al1821 O2551   1.912   1_545 S
Al1821 O2484   2.006   1_545 S
Al1821 O1838   1.925   .     S
Al1821 O1853   2.003   .     S
Al1821 O2522   1.811   1_545 S
O1822  Al1989  1.880   1_455 S
O1822  Al1065  1.811   1_455 S
O1823  Al2213  1.912   1_455 S
O1823  C1827   1.226   .     S
O1824  C1828   1.226   .     D
O1824  Al1835  1.925   .     S
O1825  C1827   1.299   .     D
O1825  Al1289  2.003   1_455 S
O1826  C1828   1.281   .     S
C1827  C1833   1.456   .     S
C1828  C1834   1.449   .     S
C1829  C1831   1.434   .     D
C1829  C1833   1.412   .     D
C1830  C1832   1.439   .     T
C1830  C1834   1.411   .     S
C1831  C1834   1.395   .     D
C1832  C1833   1.357   .     S
Al1835 O1836   1.880   .     S
Al1835 O1837   1.912   .     S
O1837  C1841   1.226   .     S
O1838  C1842   1.226   .     D
O1839  C1841   1.299   .     D
O1840  C1842   1.281   .     S
C1841  C1847   1.456   .     S
C1842  C1848   1.449   .     S
C1843  C1845   1.434   .     D
C1843  C1847   1.412   .     D
C1844  C1846   1.439   .     T
C1844  C1848   1.411   .     S
C1845  C1848   1.395   .     D
C1846  C1847   1.357   .     S
Al1849 O2578   1.880   1_545 S
Al1849 O1907   1.912   .     S
Al1849 O1896   2.006   .     S
Al1849 O3434   1.925   1_545 S
Al1849 O3505   2.003   1_545 S
Al1849 O2830   1.811   .     S
O1850  Al2017  1.880   .     S
O1850  Al2045  1.811   .     S
O1851  C1855   1.226   .     S
O1852  C1856   1.226   .     D
O1853  C1855   1.299   .     D
O1854  C1856   1.281   .     S
O1854  Al1891  2.006   .     S
C1855  C1861   1.456   .     S
C1856  C1862   1.449   .     S
C1857  C1859   1.434   .     D
C1858  C1860   1.439   .     T
C1858  C2758   1.411   .     S
C1859  C1862   1.395   .     D
C1860  C1861   1.357   .     S
C1861  C2753   1.412   .     D
Al1863 O1864   1.880   .     S
Al1863 O1865   1.912   .     S
Al1863 O1882   2.006   .     S
Al1863 O2748   1.925   .     S
Al1863 O2791   2.003   .     S
Al1863 O2788   1.811   .     S
O1864  Al1891  1.811   .     S
O1865  C1869   1.226   .     S
O1866  C1870   1.226   .     D
O1867  C1869   1.299   .     D
O1867  Al1891  2.003   .     S
O1868  C1870   1.281   .     S
O1868  Al2101  2.006   .     S
C1869  C1875   1.456   .     S
C1870  C1876   1.449   .     S
C1871  C1873   1.434   .     D
C1872  C1874   1.439   .     T
C1872  C2772   1.411   .     S
C1873  C1876   1.395   .     D
C1874  C1875   1.357   .     S
C1875  C2767   1.412   .     D
Al1877 O1934   1.880   .     S
Al1877 O2607   1.912   1_545 S
Al1877 O2540   2.006   1_545 S
Al1877 O1894   1.925   .     S
Al1877 O1909   2.003   .     S
Al1877 O2578   1.811   1_545 S
O1879  Al2045  1.912   .     S
O1879  C1883   1.226   .     S
O1880  C1884   1.226   .     D
O1880  Al1891  1.925   .     S
O1881  C1883   1.299   .     D
O1882  C1884   1.281   .     S
C1883  C1889   1.456   .     S
C1884  C1890   1.449   .     S
C1885  C1887   1.434   .     D
C1885  C1889   1.412   .     D
C1886  C1888   1.439   .     T
C1886  C1890   1.411   .     S
C1887  C1890   1.395   .     D
C1888  C1889   1.357   .     S
Al1891 O1892   1.880   .     S
Al1891 O1893   1.912   .     S
O1893  C1897   1.226   .     S
O1894  C1898   1.226   .     D
O1895  C1897   1.299   .     D
O1896  C1898   1.281   .     S
C1897  C1903   1.456   .     S
C1898  C1904   1.449   .     S
C1899  C1901   1.434   .     D
C1899  C1903   1.412   .     D
C1900  C1902   1.439   .     T
C1900  C1904   1.411   .     S
C1901  C1904   1.395   .     D
C1902  C1903   1.357   .     S
Al1905 O2634   1.880   1_545 S
Al1905 O1963   1.912   .     S
Al1905 O1952   2.006   .     S
Al1905 O3490   1.925   1_545 S
Al1905 O3561   2.003   1_545 S
Al1905 O2886   1.811   .     S
O1906  Al2073  1.880   .     S
O1906  Al2101  1.811   .     S
O1907  C1911   1.226   .     S
O1908  C1912   1.226   .     D
O1909  C1911   1.299   .     D
O1910  C1912   1.281   .     S
O1910  Al1947  2.006   .     S
C1911  C1917   1.456   .     S
C1912  C1918   1.449   .     S
C1913  C1915   1.434   .     D
C1914  C1916   1.439   .     T
C1914  C2814   1.411   .     S
C1915  C1918   1.395   .     D
C1916  C1917   1.357   .     S
C1917  C2809   1.412   .     D
Al1919 O1920   1.880   .     S
Al1919 O1921   1.912   .     S
Al1919 O1938   2.006   .     S
Al1919 O2804   1.925   .     S
Al1919 O2847   2.003   .     S
Al1919 O2844   1.811   .     S
O1920  Al1947  1.811   .     S
O1921  C1925   1.226   .     S
O1922  C1926   1.226   .     D
O1923  C1925   1.299   .     D
O1923  Al1947  2.003   .     S
O1924  C1926   1.281   .     S
O1924  Al2157  2.006   .     S
C1925  C1931   1.456   .     S
C1926  C1932   1.449   .     S
C1927  C1929   1.434   .     D
C1928  C1930   1.439   .     T
C1928  C2828   1.411   .     S
C1929  C1932   1.395   .     D
C1930  C1931   1.357   .     S
C1931  C2823   1.412   .     D
Al1933 O1990   1.880   .     S
Al1933 O2663   1.912   1_545 S
Al1933 O2596   2.006   1_545 S
Al1933 O1950   1.925   .     S
Al1933 O1965   2.003   .     S
Al1933 O2634   1.811   1_545 S
O1935  Al2101  1.912   .     S
O1935  C1939   1.226   .     S
O1936  C1940   1.226   .     D
O1936  Al1947  1.925   .     S
O1937  C1939   1.299   .     D
O1938  C1940   1.281   .     S
C1939  C1945   1.456   .     S
C1940  C1946   1.449   .     S
C1941  C1943   1.434   .     D
C1941  C1945   1.412   .     D
C1942  C1944   1.439   .     T
C1942  C1946   1.411   .     S
C1943  C1946   1.395   .     D
C1944  C1945   1.357   .     S
Al1947 O1948   1.880   .     S
Al1947 O1949   1.912   .     S
O1949  C1953   1.226   .     S
O1950  C1954   1.226   .     D
O1951  C1953   1.299   .     D
O1952  C1954   1.281   .     S
C1953  C1959   1.456   .     S
C1954  C1960   1.449   .     S
C1955  C1957   1.434   .     D
C1955  C1959   1.412   .     D
C1956  C1958   1.439   .     T
C1956  C1960   1.411   .     S
C1957  C1960   1.395   .     D
C1958  C1959   1.357   .     S
Al1961 O2466   1.880   1_645 S
Al1961 O1795   1.912   1_655 S
Al1961 O2008   2.006   .     S
Al1961 O3546   1.925   1_545 S
Al1961 O3393   2.003   1_645 S
Al1961 O2718   1.811   1_655 S
O1962  Al2129  1.880   .     S
O1962  Al2157  1.811   .     S
O1963  C1967   1.226   .     S
O1964  C1968   1.226   .     D
O1965  C1967   1.299   .     D
O1966  C1968   1.281   .     S
O1966  Al2003  2.006   .     S
C1967  C1973   1.456   .     S
C1968  C1974   1.449   .     S
C1969  C1971   1.434   .     D
C1970  C1972   1.439   .     T
C1970  C2870   1.411   .     S
C1971  C1974   1.395   .     D
C1972  C1973   1.357   .     S
C1973  C2865   1.412   .     D
Al1975 O1976   1.880   .     S
Al1975 O1977   1.912   .     S
Al1975 O1994   2.006   .     S
Al1975 O2860   1.925   .     S
Al1975 O2903   2.003   .     S
Al1975 O2900   1.811   .     S
O1976  Al2003  1.811   .     S
O1977  C1981   1.226   .     S
O1978  C1982   1.226   .     D
O1979  C1981   1.299   .     D
O1979  Al2003  2.003   .     S
O1980  C1982   1.281   .     S
O1980  Al2213  2.006   .     S
C1981  C1987   1.456   .     S
C1982  C1988   1.449   .     S
C1983  C1985   1.434   .     D
C1984  C1986   1.439   .     T
C1984  C2884   1.411   .     S
C1985  C1988   1.395   .     D
C1986  C1987   1.357   .     S
C1987  C2879   1.412   .     D
Al1989 O1822   1.880   1_655 S
Al1989 O2495   1.912   1_645 S
Al1989 O2652   2.006   1_545 S
Al1989 O2006   1.925   .     S
Al1989 O1797   2.003   1_655 S
Al1989 O2466   1.811   1_645 S
O1991  Al2157  1.912   .     S
O1991  C1995   1.226   .     S
O1992  C1996   1.226   .     D
O1992  Al2003  1.925   .     S
O1993  C1995   1.299   .     D
O1994  C1996   1.281   .     S
C1995  C2001   1.456   .     S
C1996  C2002   1.449   .     S
C1997  C1999   1.434   .     D
C1997  C2001   1.412   .     D
C1998  C2000   1.439   .     T
C1998  C2002   1.411   .     S
C1999  C2002   1.395   .     D
C2000  C2001   1.357   .     S
Al2003 O2004   1.880   .     S
Al2003 O2005   1.912   .     S
O2005  C2009   1.226   .     S
O2006  C2010   1.226   .     D
O2007  C2009   1.299   .     D
O2008  C2010   1.281   .     S
C2009  C2015   1.456   .     S
C2010  C2016   1.449   .     S
C2011  C2013   1.434   .     D
C2011  C2015   1.412   .     D
C2012  C2014   1.439   .     T
C2012  C2016   1.411   .     S
C2013  C2016   1.395   .     D
C2014  C2015   1.357   .     S
Al2017 O2075   1.912   .     S
Al2017 O2064   2.006   .     S
Al2017 O2706   1.925   .     S
Al2017 O2777   2.003   .     S
Al2017 O2998   1.811   .     S
O2018  Al2409  1.880   1_455 S
O2018  Al2437  1.811   1_455 S
O2019  Al2185  1.912   1_455 S
O2019  C2023   1.226   .     S
O2020  C2024   1.226   .     D
O2021  C2023   1.299   .     D
O2021  Al2213  2.003   1_455 S
O2022  C2024   1.281   .     S
O2022  Al2059  2.006   .     S
C2023  C2029   1.456   .     S
C2024  C2030   1.449   .     S
C2025  C2027   1.434   .     D
C2026  C2028   1.439   .     T
C2026  C2926   1.411   .     S
C2027  C2030   1.395   .     D
C2028  C2029   1.357   .     S
C2029  C2921   1.412   .     D
Al2031 O2032   1.880   .     S
Al2031 O2033   1.912   .     S
Al2031 O2050   2.006   .     S
Al2031 O2916   1.925   .     S
Al2031 O2959   2.003   .     S
Al2031 O2956   1.811   .     S
O2032  Al2059  1.811   .     S
O2033  C2037   1.226   .     S
O2034  C2038   1.226   .     D
O2035  C2037   1.299   .     D
O2035  Al2059  2.003   .     S
O2036  C2038   1.281   .     S
O2036  Al2269  2.006   .     S
C2037  C2043   1.456   .     S
C2038  C2044   1.449   .     S
C2039  C2041   1.434   .     D
C2040  C2042   1.439   .     T
C2040  C2940   1.411   .     S
C2041  C2044   1.395   .     D
C2042  C2043   1.357   .     S
C2043  C2935   1.412   .     D
Al2045 O2102   1.880   .     S
Al2045 O2062   1.925   .     S
Al2045 O2077   2.003   .     S
O2046  Al2213  1.880   1_455 S
O2046  Al1289  1.811   1_455 S
O2047  Al2437  1.912   1_455 S
O2047  C2051   1.226   .     S
O2048  C2052   1.226   .     D
O2048  Al2059  1.925   .     S
O2049  C2051   1.299   .     D
O2049  Al1513  2.003   1_455 S
O2050  C2052   1.281   .     S
C2051  C2057   1.456   .     S
C2052  C2058   1.449   .     S
C2053  C2055   1.434   .     D
C2053  C2057   1.412   .     D
C2054  C2056   1.439   .     T
C2054  C2058   1.411   .     S
C2055  C2058   1.395   .     D
C2056  C2057   1.357   .     S
Al2059 O2060   1.880   .     S
Al2059 O2061   1.912   .     S
O2061  C2065   1.226   .     S
O2062  C2066   1.226   .     D
O2063  C2065   1.299   .     D
O2064  C2066   1.281   .     S
C2065  C2071   1.456   .     S
C2066  C2072   1.449   .     S
C2067  C2069   1.434   .     D
C2067  C2071   1.412   .     D
C2068  C2070   1.439   .     T
C2068  C2072   1.411   .     S
C2069  C2072   1.395   .     D
C2070  C2071   1.357   .     S
Al2073 O2131   1.912   .     S
Al2073 O2120   2.006   .     S
Al2073 O2762   1.925   .     S
Al2073 O2833   2.003   .     S
Al2073 O3054   1.811   .     S
O2074  Al2241  1.880   .     S
O2074  Al2269  1.811   .     S
O2075  C2079   1.226   .     S
O2076  C2080   1.226   .     D
O2077  C2079   1.299   .     D
O2078  C2080   1.281   .     S
O2078  Al2115  2.006   .     S
C2079  C2085   1.456   .     S
C2080  C2086   1.449   .     S
C2081  C2083   1.434   .     D
C2082  C2084   1.439   .     T
C2082  C2982   1.411   .     S
C2083  C2086   1.395   .     D
C2084  C2085   1.357   .     S
C2085  C2977   1.412   .     D
Al2087 O2088   1.880   .     S
Al2087 O2089   1.912   .     S
Al2087 O2106   2.006   .     S
Al2087 O2972   1.925   .     S
Al2087 O3015   2.003   .     S
Al2087 O3012   1.811   .     S
O2088  Al2115  1.811   .     S
O2089  C2093   1.226   .     S
O2090  C2094   1.226   .     D
O2091  C2093   1.299   .     D
O2091  Al2115  2.003   .     S
O2092  C2094   1.281   .     S
O2092  Al2325  2.006   .     S
C2093  C2099   1.456   .     S
C2094  C2100   1.449   .     S
C2095  C2097   1.434   .     D
C2096  C2098   1.439   .     T
C2096  C2996   1.411   .     S
C2097  C2100   1.395   .     D
C2098  C2099   1.357   .     S
C2099  C2991   1.412   .     D
Al2101 O2158   1.880   .     S
Al2101 O2118   1.925   .     S
Al2101 O2133   2.003   .     S
O2103  Al2269  1.912   .     S
O2103  C2107   1.226   .     S
O2104  C2108   1.226   .     D
O2104  Al2115  1.925   .     S
O2105  C2107   1.299   .     D
O2106  C2108   1.281   .     S
C2107  C2113   1.456   .     S
C2108  C2114   1.449   .     S
C2109  C2111   1.434   .     D
C2109  C2113   1.412   .     D
C2110  C2112   1.439   .     T
C2110  C2114   1.411   .     S
C2111  C2114   1.395   .     D
C2112  C2113   1.357   .     S
Al2115 O2116   1.880   .     S
Al2115 O2117   1.912   .     S
O2117  C2121   1.226   .     S
O2118  C2122   1.226   .     D
O2119  C2121   1.299   .     D
O2120  C2122   1.281   .     S
C2121  C2127   1.456   .     S
C2122  C2128   1.449   .     S
C2123  C2125   1.434   .     D
C2123  C2127   1.412   .     D
C2124  C2126   1.439   .     T
C2124  C2128   1.411   .     S
C2125  C2128   1.395   .     D
C2126  C2127   1.357   .     S
Al2129 O2187   1.912   .     S
Al2129 O2176   2.006   .     S
Al2129 O2818   1.925   .     S
Al2129 O2889   2.003   .     S
Al2129 O3110   1.811   .     S
O2130  Al2297  1.880   .     S
O2130  Al2325  1.811   .     S
O2131  C2135   1.226   .     S
O2132  C2136   1.226   .     D
O2133  C2135   1.299   .     D
O2134  C2136   1.281   .     S
O2134  Al2171  2.006   .     S
C2135  C2141   1.456   .     S
C2136  C2142   1.449   .     S
C2137  C2139   1.434   .     D
C2138  C2140   1.439   .     T
C2138  C3038   1.411   .     S
C2139  C2142   1.395   .     D
C2140  C2141   1.357   .     S
C2141  C3033   1.412   .     D
Al2143 O2144   1.880   .     S
Al2143 O2145   1.912   .     S
Al2143 O2162   2.006   .     S
Al2143 O3028   1.925   .     S
Al2143 O3071   2.003   .     S
Al2143 O3068   1.811   .     S
O2144  Al2171  1.811   .     S
O2145  C2149   1.226   .     S
O2146  C2150   1.226   .     D
O2147  C2149   1.299   .     D
O2147  Al2171  2.003   .     S
O2148  C2150   1.281   .     S
O2148  Al2381  2.006   .     S
C2149  C2155   1.456   .     S
C2150  C2156   1.449   .     S
C2151  C2153   1.434   .     D
C2152  C2154   1.439   .     T
C2152  C3052   1.411   .     S
C2153  C2156   1.395   .     D
C2154  C2155   1.357   .     S
C2155  C3047   1.412   .     D
Al2157 O2214   1.880   .     S
Al2157 O2174   1.925   .     S
Al2157 O2189   2.003   .     S
O2159  Al2325  1.912   .     S
O2159  C2163   1.226   .     S
O2160  C2164   1.226   .     D
O2160  Al2171  1.925   .     S
O2161  C2163   1.299   .     D
O2162  C2164   1.281   .     S
C2163  C2169   1.456   .     S
C2164  C2170   1.449   .     S
C2165  C2167   1.434   .     D
C2165  C2169   1.412   .     D
C2166  C2168   1.439   .     T
C2166  C2170   1.411   .     S
C2167  C2170   1.395   .     D
C2168  C2169   1.357   .     S
Al2171 O2172   1.880   .     S
Al2171 O2173   1.912   .     S
O2173  C2177   1.226   .     S
O2174  C2178   1.226   .     D
O2175  C2177   1.299   .     D
O2176  C2178   1.281   .     S
C2177  C2183   1.456   .     S
C2178  C2184   1.449   .     S
C2179  C2181   1.434   .     D
C2179  C2183   1.412   .     D
C2180  C2182   1.439   .     T
C2180  C2184   1.411   .     S
C2181  C2184   1.395   .     D
C2182  C2183   1.357   .     S
Al2185 O1794   1.880   1_655 S
Al2185 O2019   1.912   1_655 S
Al2185 O2232   2.006   .     S
Al2185 O2874   1.925   .     S
Al2185 O2721   2.003   1_655 S
Al2185 O2942   1.811   1_655 S
O2186  Al2353  1.880   .     S
O2186  Al2381  1.811   .     S
O2187  C2191   1.226   .     S
O2188  C2192   1.226   .     D
O2189  C2191   1.299   .     D
O2190  C2192   1.281   .     S
O2190  Al2227  2.006   .     S
C2191  C2197   1.456   .     S
C2192  C2198   1.449   .     S
C2193  C2195   1.434   .     D
C2194  C2196   1.439   .     T
C2194  C3094   1.411   .     S
C2195  C2198   1.395   .     D
C2196  C2197   1.357   .     S
C2197  C3089   1.412   .     D
Al2199 O2200   1.880   .     S
Al2199 O2201   1.912   .     S
Al2199 O2218   2.006   .     S
Al2199 O3084   1.925   .     S
Al2199 O3127   2.003   .     S
Al2199 O3124   1.811   .     S
O2200  Al2227  1.811   .     S
O2201  C2205   1.226   .     S
O2202  C2206   1.226   .     D
O2203  C2205   1.299   .     D
O2203  Al2227  2.003   .     S
O2204  C2206   1.281   .     S
O2204  Al2437  2.006   .     S
C2205  C2211   1.456   .     S
C2206  C2212   1.449   .     S
C2207  C2209   1.434   .     D
C2208  C2210   1.439   .     T
C2208  C3108   1.411   .     S
C2209  C2212   1.395   .     D
C2210  C2211   1.357   .     S
C2211  C3103   1.412   .     D
Al2213 O2046   1.880   1_655 S
Al2213 O1823   1.912   1_655 S
Al2213 O2230   1.925   .     S
Al2213 O2021   2.003   1_655 S
Al2213 O1794   1.811   1_655 S
O2215  Al2381  1.912   .     S
O2215  C2219   1.226   .     S
O2216  C2220   1.226   .     D
O2216  Al2227  1.925   .     S
O2217  C2219   1.299   .     D
O2218  C2220   1.281   .     S
C2219  C2225   1.456   .     S
C2220  C2226   1.449   .     S
C2221  C2223   1.434   .     D
C2221  C2225   1.412   .     D
C2222  C2224   1.439   .     T
C2222  C2226   1.411   .     S
C2223  C2226   1.395   .     D
C2224  C2225   1.357   .     S
Al2227 O2228   1.880   .     S
Al2227 O2229   1.912   .     S
O2229  C2233   1.226   .     S
O2230  C2234   1.226   .     D
O2231  C2233   1.299   .     D
O2232  C2234   1.281   .     S
C2233  C2239   1.456   .     S
C2234  C2240   1.449   .     S
C2235  C2237   1.434   .     D
C2235  C2239   1.412   .     D
C2236  C2238   1.439   .     T
C2236  C2240   1.411   .     S
C2237  C2240   1.395   .     D
C2238  C2239   1.357   .     S
Al2241 O2299   1.912   .     S
Al2241 O2288   2.006   .     S
Al2241 O2930   1.925   .     S
Al2241 O3001   2.003   .     S
Al2241 O3222   1.811   .     S
O2242  Al2633  1.880   1_455 S
O2242  Al2661  1.811   1_455 S
O2243  Al2409  1.912   1_455 S
O2243  C2247   1.226   .     S
O2244  C2248   1.226   .     D
O2245  C2247   1.299   .     D
O2245  Al2437  2.003   1_455 S
O2246  C2248   1.281   .     S
O2246  Al2283  2.006   .     S
C2247  C2253   1.456   .     S
C2248  C2254   1.449   .     S
C2249  C2251   1.434   .     D
C2250  C2252   1.439   .     T
C2250  C3150   1.411   .     S
C2251  C2254   1.395   .     D
C2252  C2253   1.357   .     S
C2253  C3145   1.412   .     D
Al2255 O2256   1.880   .     S
Al2255 O2257   1.912   .     S
Al2255 O2274   2.006   .     S
Al2255 O3140   1.925   .     S
Al2255 O3183   2.003   .     S
Al2255 O3180   1.811   .     S
O2256  Al2283  1.811   .     S
O2257  C2261   1.226   .     S
O2258  C2262   1.226   .     D
O2259  C2261   1.299   .     D
O2259  Al2283  2.003   .     S
O2260  C2262   1.281   .     S
O2260  Al2493  2.006   .     S
C2261  C2267   1.456   .     S
C2262  C2268   1.449   .     S
C2263  C2265   1.434   .     D
C2264  C2266   1.439   .     T
C2264  C3164   1.411   .     S
C2265  C2268   1.395   .     D
C2266  C2267   1.357   .     S
C2267  C3159   1.412   .     D
Al2269 O2326   1.880   .     S
Al2269 O2286   1.925   .     S
Al2269 O2301   2.003   .     S
O2270  Al2437  1.880   1_455 S
O2270  Al1513  1.811   1_455 S
O2271  Al2661  1.912   1_455 S
O2271  C2275   1.226   .     S
O2272  C2276   1.226   .     D
O2272  Al2283  1.925   .     S
O2273  C2275   1.299   .     D
O2273  Al1737  2.003   1_455 S
O2274  C2276   1.281   .     S
C2275  C2281   1.456   .     S
C2276  C2282   1.449   .     S
C2277  C2279   1.434   .     D
C2277  C2281   1.412   .     D
C2278  C2280   1.439   .     T
C2278  C2282   1.411   .     S
C2279  C2282   1.395   .     D
C2280  C2281   1.357   .     S
Al2283 O2284   1.880   .     S
Al2283 O2285   1.912   .     S
O2285  C2289   1.226   .     S
O2286  C2290   1.226   .     D
O2287  C2289   1.299   .     D
O2288  C2290   1.281   .     S
C2289  C2295   1.456   .     S
C2290  C2296   1.449   .     S
C2291  C2293   1.434   .     D
C2291  C2295   1.412   .     D
C2292  C2294   1.439   .     T
C2292  C2296   1.411   .     S
C2293  C2296   1.395   .     D
C2294  C2295   1.357   .     S
Al2297 O2355   1.912   .     S
Al2297 O2344   2.006   .     S
Al2297 O2986   1.925   .     S
Al2297 O3057   2.003   .     S
Al2297 O3278   1.811   .     S
O2298  Al2465  1.880   .     S
O2298  Al2493  1.811   .     S
O2299  C2303   1.226   .     S
O2300  C2304   1.226   .     D
O2301  C2303   1.299   .     D
O2302  C2304   1.281   .     S
O2302  Al2339  2.006   .     S
C2303  C2309   1.456   .     S
C2304  C2310   1.449   .     S
C2305  C2307   1.434   .     D
C2306  C2308   1.439   .     T
C2306  C3206   1.411   .     S
C2307  C2310   1.395   .     D
C2308  C2309   1.357   .     S
C2309  C3201   1.412   .     D
Al2311 O2312   1.880   .     S
Al2311 O2313   1.912   .     S
Al2311 O2330   2.006   .     S
Al2311 O3196   1.925   .     S
Al2311 O3239   2.003   .     S
Al2311 O3236   1.811   .     S
O2312  Al2339  1.811   .     S
O2313  C2317   1.226   .     S
O2314  C2318   1.226   .     D
O2315  C2317   1.299   .     D
O2315  Al2339  2.003   .     S
O2316  C2318   1.281   .     S
O2316  Al2549  2.006   .     S
C2317  C2323   1.456   .     S
C2318  C2324   1.449   .     S
C2319  C2321   1.434   .     D
C2320  C2322   1.439   .     T
C2320  C3220   1.411   .     S
C2321  C2324   1.395   .     D
C2322  C2323   1.357   .     S
C2323  C3215   1.412   .     D
Al2325 O2382   1.880   .     S
Al2325 O2342   1.925   .     S
Al2325 O2357   2.003   .     S
O2327  Al2493  1.912   .     S
O2327  C2331   1.226   .     S
O2328  C2332   1.226   .     D
O2328  Al2339  1.925   .     S
O2329  C2331   1.299   .     D
O2330  C2332   1.281   .     S
C2331  C2337   1.456   .     S
C2332  C2338   1.449   .     S
C2333  C2335   1.434   .     D
C2333  C2337   1.412   .     D
C2334  C2336   1.439   .     T
C2334  C2338   1.411   .     S
C2335  C2338   1.395   .     D
C2336  C2337   1.357   .     S
Al2339 O2340   1.880   .     S
Al2339 O2341   1.912   .     S
O2341  C2345   1.226   .     S
O2342  C2346   1.226   .     D
O2343  C2345   1.299   .     D
O2344  C2346   1.281   .     S
C2345  C2351   1.456   .     S
C2346  C2352   1.449   .     S
C2347  C2349   1.434   .     D
C2347  C2351   1.412   .     D
C2348  C2350   1.439   .     T
C2348  C2352   1.411   .     S
C2349  C2352   1.395   .     D
C2350  C2351   1.357   .     S
Al2353 O2411   1.912   .     S
Al2353 O2400   2.006   .     S
Al2353 O3042   1.925   .     S
Al2353 O3113   2.003   .     S
Al2353 O3334   1.811   .     S
O2354  Al2521  1.880   .     S
O2354  Al2549  1.811   .     S
O2355  C2359   1.226   .     S
O2356  C2360   1.226   .     D
O2357  C2359   1.299   .     D
O2358  C2360   1.281   .     S
O2358  Al2395  2.006   .     S
C2359  C2365   1.456   .     S
C2360  C2366   1.449   .     S
C2361  C2363   1.434   .     D
C2362  C2364   1.439   .     T
C2362  C3262   1.411   .     S
C2363  C2366   1.395   .     D
C2364  C2365   1.357   .     S
C2365  C3257   1.412   .     D
Al2367 O2368   1.880   .     S
Al2367 O2369   1.912   .     S
Al2367 O2386   2.006   .     S
Al2367 O3252   1.925   .     S
Al2367 O3295   2.003   .     S
Al2367 O3292   1.811   .     S
O2368  Al2395  1.811   .     S
O2369  C2373   1.226   .     S
O2370  C2374   1.226   .     D
O2371  C2373   1.299   .     D
O2371  Al2395  2.003   .     S
O2372  C2374   1.281   .     S
O2372  Al2605  2.006   .     S
C2373  C2379   1.456   .     S
C2374  C2380   1.449   .     S
C2375  C2377   1.434   .     D
C2376  C2378   1.439   .     T
C2376  C3276   1.411   .     S
C2377  C2380   1.395   .     D
C2378  C2379   1.357   .     S
C2379  C3271   1.412   .     D
Al2381 O2438   1.880   .     S
Al2381 O2398   1.925   .     S
Al2381 O2413   2.003   .     S
O2383  Al2549  1.912   .     S
O2383  C2387   1.226   .     S
O2384  C2388   1.226   .     D
O2384  Al2395  1.925   .     S
O2385  C2387   1.299   .     D
O2386  C2388   1.281   .     S
C2387  C2393   1.456   .     S
C2388  C2394   1.449   .     S
C2389  C2391   1.434   .     D
C2389  C2393   1.412   .     D
C2390  C2392   1.439   .     T
C2390  C2394   1.411   .     S
C2391  C2394   1.395   .     D
C2392  C2393   1.357   .     S
Al2395 O2396   1.880   .     S
Al2395 O2397   1.912   .     S
O2397  C2401   1.226   .     S
O2398  C2402   1.226   .     D
O2399  C2401   1.299   .     D
O2400  C2402   1.281   .     S
C2401  C2407   1.456   .     S
C2402  C2408   1.449   .     S
C2403  C2405   1.434   .     D
C2403  C2407   1.412   .     D
C2404  C2406   1.439   .     T
C2404  C2408   1.411   .     S
C2405  C2408   1.395   .     D
C2406  C2407   1.357   .     S
Al2409 O2018   1.880   1_655 S
Al2409 O2243   1.912   1_655 S
Al2409 O2456   2.006   .     S
Al2409 O3098   1.925   .     S
Al2409 O2945   2.003   1_655 S
Al2409 O3166   1.811   1_655 S
O2410  Al2577  1.880   .     S
O2410  Al2605  1.811   .     S
O2411  C2415   1.226   .     S
O2412  C2416   1.226   .     D
O2413  C2415   1.299   .     D
O2414  C2416   1.281   .     S
O2414  Al2451  2.006   .     S
C2415  C2421   1.456   .     S
C2416  C2422   1.449   .     S
C2417  C2419   1.434   .     D
C2418  C2420   1.439   .     T
C2418  C3318   1.411   .     S
C2419  C2422   1.395   .     D
C2420  C2421   1.357   .     S
C2421  C3313   1.412   .     D
Al2423 O2424   1.880   .     S
Al2423 O2425   1.912   .     S
Al2423 O2442   2.006   .     S
Al2423 O3308   1.925   .     S
Al2423 O3351   2.003   .     S
Al2423 O3348   1.811   .     S
O2424  Al2451  1.811   .     S
O2425  C2429   1.226   .     S
O2426  C2430   1.226   .     D
O2427  C2429   1.299   .     D
O2427  Al2451  2.003   .     S
O2428  C2430   1.281   .     S
O2428  Al2661  2.006   .     S
C2429  C2435   1.456   .     S
C2430  C2436   1.449   .     S
C2431  C2433   1.434   .     D
C2432  C2434   1.439   .     T
C2432  C3332   1.411   .     S
C2433  C2436   1.395   .     D
C2434  C2435   1.357   .     S
C2435  C3327   1.412   .     D
Al2437 O2270   1.880   1_655 S
Al2437 O2047   1.912   1_655 S
Al2437 O2454   1.925   .     S
Al2437 O2245   2.003   1_655 S
Al2437 O2018   1.811   1_655 S
O2439  Al2605  1.912   .     S
O2439  C2443   1.226   .     S
O2440  C2444   1.226   .     D
O2440  Al2451  1.925   .     S
O2441  C2443   1.299   .     D
O2442  C2444   1.281   .     S
C2443  C2449   1.456   .     S
C2444  C2450   1.449   .     S
C2445  C2447   1.434   .     D
C2445  C2449   1.412   .     D
C2446  C2448   1.439   .     T
C2446  C2450   1.411   .     S
C2447  C2450   1.395   .     D
C2448  C2449   1.357   .     S
Al2451 O2452   1.880   .     S
Al2451 O2453   1.912   .     S
O2453  C2457   1.226   .     S
O2454  C2458   1.226   .     D
O2455  C2457   1.299   .     D
O2456  C2458   1.281   .     S
C2457  C2463   1.456   .     S
C2458  C2464   1.449   .     S
C2459  C2461   1.434   .     D
C2459  C2463   1.412   .     D
C2460  C2462   1.439   .     T
C2460  C2464   1.411   .     S
C2461  C2464   1.395   .     D
C2462  C2463   1.357   .     S
Al2465 O2523   1.912   .     S
Al2465 O2512   2.006   .     S
Al2465 O3154   1.925   .     S
Al2465 O3225   2.003   .     S
Al2465 O3446   1.811   .     S
O2466  Al1961  1.880   1_465 S
O2466  Al1989  1.811   1_465 S
O2467  Al2633  1.912   1_455 S
O2467  C2471   1.226   .     S
O2468  C2472   1.226   .     D
O2469  C2471   1.299   .     D
O2469  Al2661  2.003   1_455 S
O2470  C2472   1.281   .     S
O2470  Al2507  2.006   .     S
C2471  C2477   1.456   .     S
C2472  C2478   1.449   .     S
C2473  C2475   1.434   .     D
C2474  C2476   1.439   .     T
C2474  C3374   1.411   .     S
C2475  C2478   1.395   .     D
C2476  C2477   1.357   .     S
C2477  C3369   1.412   .     D
Al2479 O2480   1.880   .     S
Al2479 O2481   1.912   .     S
Al2479 O2498   2.006   .     S
Al2479 O3364   1.925   .     S
Al2479 O3407   2.003   .     S
Al2479 O3404   1.811   .     S
O2480  Al2507  1.811   .     S
O2481  C2485   1.226   .     S
O2482  C2486   1.226   .     D
O2482  Al897   1.925   1_565 S
O2483  C2485   1.299   .     D
O2483  Al2507  2.003   .     S
O2484  C2486   1.281   .     S
O2484  Al1821  2.006   1_565 S
C2485  C2491   1.456   .     S
C2486  C2492   1.449   .     S
C2487  C2489   1.434   .     D
C2488  C2490   1.439   .     T
C2488  C3388   1.411   .     S
C2489  C2492   1.395   .     D
C2490  C2491   1.357   .     S
C2491  C3383   1.412   .     D
Al2493 O2550   1.880   .     S
Al2493 O2510   1.925   .     S
Al2493 O2525   2.003   .     S
O2494  Al2661  1.880   1_455 S
O2494  Al1737  1.811   1_455 S
O2495  Al1989  1.912   1_465 S
O2495  C2499   1.226   .     S
O2496  C2500   1.226   .     D
O2496  Al2507  1.925   .     S
O2497  C2499   1.299   .     D
O2497  Al1065  2.003   1_465 S
O2498  C2500   1.281   .     S
C2499  C2505   1.456   .     S
C2500  C2506   1.449   .     S
C2501  C2503   1.434   .     D
C2501  C2505   1.412   .     D
C2502  C2504   1.439   .     T
C2502  C2506   1.411   .     S
C2503  C2506   1.395   .     D
C2504  C2505   1.357   .     S
Al2507 O2508   1.880   .     S
Al2507 O2509   1.912   .     S
O2509  C2513   1.226   .     S
O2510  C2514   1.226   .     D
O2511  C2513   1.299   .     D
O2512  C2514   1.281   .     S
C2513  C2519   1.456   .     S
C2514  C2520   1.449   .     S
C2515  C2517   1.434   .     D
C2515  C2519   1.412   .     D
C2516  C2518   1.439   .     T
C2516  C2520   1.411   .     S
C2517  C2520   1.395   .     D
C2518  C2519   1.357   .     S
Al2521 O2579   1.912   .     S
Al2521 O2568   2.006   .     S
Al2521 O3210   1.925   .     S
Al2521 O3281   2.003   .     S
Al2521 O3502   1.811   .     S
O2522  Al1793  1.880   1_565 S
O2522  Al1821  1.811   1_565 S
O2523  C2527   1.226   .     S
O2524  C2528   1.226   .     D
O2525  C2527   1.299   .     D
O2526  C2528   1.281   .     S
O2526  Al2563  2.006   .     S
C2527  C2533   1.456   .     S
C2528  C2534   1.449   .     S
C2529  C2531   1.434   .     D
C2530  C2532   1.439   .     T
C2530  C3430   1.411   .     S
C2531  C2534   1.395   .     D
C2532  C2533   1.357   .     S
C2533  C3425   1.412   .     D
Al2535 O2536   1.880   .     S
Al2535 O2537   1.912   .     S
Al2535 O2554   2.006   .     S
Al2535 O3420   1.925   .     S
Al2535 O3463   2.003   .     S
Al2535 O3460   1.811   .     S
O2536  Al2563  1.811   .     S
O2537  C2541   1.226   .     S
O2538  C2542   1.226   .     D
O2538  Al953   1.925   1_565 S
O2539  C2541   1.299   .     D
O2539  Al2563  2.003   .     S
O2540  C2542   1.281   .     S
O2540  Al1877  2.006   1_565 S
C2541  C2547   1.456   .     S
C2542  C2548   1.449   .     S
C2543  C2545   1.434   .     D
C2544  C2546   1.439   .     T
C2544  C3444   1.411   .     S
C2545  C2548   1.395   .     D
C2546  C2547   1.357   .     S
C2547  C3439   1.412   .     D
Al2549 O2606   1.880   .     S
Al2549 O2566   1.925   .     S
Al2549 O2581   2.003   .     S
O2551  Al1821  1.912   1_565 S
O2551  C2555   1.226   .     S
O2552  C2556   1.226   .     D
O2552  Al2563  1.925   .     S
O2553  C2555   1.299   .     D
O2553  Al897   2.003   1_565 S
O2554  C2556   1.281   .     S
C2555  C2561   1.456   .     S
C2556  C2562   1.449   .     S
C2557  C2559   1.434   .     D
C2557  C2561   1.412   .     D
C2558  C2560   1.439   .     T
C2558  C2562   1.411   .     S
C2559  C2562   1.395   .     D
C2560  C2561   1.357   .     S
Al2563 O2564   1.880   .     S
Al2563 O2565   1.912   .     S
O2565  C2569   1.226   .     S
O2566  C2570   1.226   .     D
O2567  C2569   1.299   .     D
O2568  C2570   1.281   .     S
C2569  C2575   1.456   .     S
C2570  C2576   1.449   .     S
C2571  C2573   1.434   .     D
C2571  C2575   1.412   .     D
C2572  C2574   1.439   .     T
C2572  C2576   1.411   .     S
C2573  C2576   1.395   .     D
C2574  C2575   1.357   .     S
Al2577 O2635   1.912   .     S
Al2577 O2624   2.006   .     S
Al2577 O3266   1.925   .     S
Al2577 O3337   2.003   .     S
Al2577 O3558   1.811   .     S
O2578  Al1849  1.880   1_565 S
O2578  Al1877  1.811   1_565 S
O2579  C2583   1.226   .     S
O2580  C2584   1.226   .     D
O2581  C2583   1.299   .     D
O2582  C2584   1.281   .     S
O2582  Al2619  2.006   .     S
C2583  C2589   1.456   .     S
C2584  C2590   1.449   .     S
C2585  C2587   1.434   .     D
C2586  C2588   1.439   .     T
C2586  C3486   1.411   .     S
C2587  C2590   1.395   .     D
C2588  C2589   1.357   .     S
C2589  C3481   1.412   .     D
Al2591 O2592   1.880   .     S
Al2591 O2593   1.912   .     S
Al2591 O2610   2.006   .     S
Al2591 O3476   1.925   .     S
Al2591 O3519   2.003   .     S
Al2591 O3516   1.811   .     S
O2592  Al2619  1.811   .     S
O2593  C2597   1.226   .     S
O2594  C2598   1.226   .     D
O2594  Al1009  1.925   1_565 S
O2595  C2597   1.299   .     D
O2595  Al2619  2.003   .     S
O2596  C2598   1.281   .     S
O2596  Al1933  2.006   1_565 S
C2597  C2603   1.456   .     S
C2598  C2604   1.449   .     S
C2599  C2601   1.434   .     D
C2600  C2602   1.439   .     T
C2600  C3500   1.411   .     S
C2601  C2604   1.395   .     D
C2602  C2603   1.357   .     S
C2603  C3495   1.412   .     D
Al2605 O2662   1.880   .     S
Al2605 O2622   1.925   .     S
Al2605 O2637   2.003   .     S
O2607  Al1877  1.912   1_565 S
O2607  C2611   1.226   .     S
O2608  C2612   1.226   .     D
O2608  Al2619  1.925   .     S
O2609  C2611   1.299   .     D
O2609  Al953   2.003   1_565 S
O2610  C2612   1.281   .     S
C2611  C2617   1.456   .     S
C2612  C2618   1.449   .     S
C2613  C2615   1.434   .     D
C2613  C2617   1.412   .     D
C2614  C2616   1.439   .     T
C2614  C2618   1.411   .     S
C2615  C2618   1.395   .     D
C2616  C2617   1.357   .     S
Al2619 O2620   1.880   .     S
Al2619 O2621   1.912   .     S
O2621  C2625   1.226   .     S
O2622  C2626   1.226   .     D
O2623  C2625   1.299   .     D
O2624  C2626   1.281   .     S
C2625  C2631   1.456   .     S
C2626  C2632   1.449   .     S
C2627  C2629   1.434   .     D
C2627  C2631   1.412   .     D
C2628  C2630   1.439   .     T
C2628  C2632   1.411   .     S
C2629  C2632   1.395   .     D
C2630  C2631   1.357   .     S
Al2633 O2242   1.880   1_655 S
Al2633 O2467   1.912   1_655 S
Al2633 O2680   2.006   .     S
Al2633 O3322   1.925   .     S
Al2633 O3169   2.003   1_655 S
Al2633 O3390   1.811   1_655 S
O2634  Al1905  1.880   1_565 S
O2634  Al1933  1.811   1_565 S
O2635  C2639   1.226   .     S
O2636  C2640   1.226   .     D
O2637  C2639   1.299   .     D
O2638  C2640   1.281   .     S
O2638  Al2675  2.006   .     S
C2639  C2645   1.456   .     S
C2640  C2646   1.449   .     S
C2641  C2643   1.434   .     D
C2642  C2644   1.439   .     T
C2642  C3542   1.411   .     S
C2643  C2646   1.395   .     D
C2644  C2645   1.357   .     S
C2645  C3537   1.412   .     D
Al2647 O2648   1.880   .     S
Al2647 O2649   1.912   .     S
Al2647 O2666   2.006   .     S
Al2647 O3532   1.925   .     S
Al2647 O3575   2.003   .     S
Al2647 O3572   1.811   .     S
O2648  Al2675  1.811   .     S
O2649  C2653   1.226   .     S
O2650  C2654   1.226   .     D
O2650  Al1065  1.925   1_565 S
O2651  C2653   1.299   .     D
O2651  Al2675  2.003   .     S
O2652  C2654   1.281   .     S
O2652  Al1989  2.006   1_565 S
C2653  C2659   1.456   .     S
C2654  C2660   1.449   .     S
C2655  C2657   1.434   .     D
C2656  C2658   1.439   .     T
C2656  C3556   1.411   .     S
C2657  C2660   1.395   .     D
C2658  C2659   1.357   .     S
C2659  C3551   1.412   .     D
Al2661 O2494   1.880   1_655 S
Al2661 O2271   1.912   1_655 S
Al2661 O2678   1.925   .     S
Al2661 O2469   2.003   1_655 S
Al2661 O2242   1.811   1_655 S
O2663  Al1933  1.912   1_565 S
O2663  C2667   1.226   .     S
O2664  C2668   1.226   .     D
O2664  Al2675  1.925   .     S
O2665  C2667   1.299   .     D
O2665  Al1009  2.003   1_565 S
O2666  C2668   1.281   .     S
C2667  C2673   1.456   .     S
C2668  C2674   1.449   .     S
C2669  C2671   1.434   .     D
C2669  C2673   1.412   .     D
C2670  C2672   1.439   .     T
C2670  C2674   1.411   .     S
C2671  C2674   1.395   .     D
C2672  C2673   1.357   .     S
Al2675 O2676   1.880   .     S
Al2675 O2677   1.912   .     S
O2677  C2681   1.226   .     S
O2678  C2682   1.226   .     D
O2679  C2681   1.299   .     D
O2680  C2682   1.281   .     S
C2681  C2687   1.456   .     S
C2682  C2688   1.449   .     S
C2683  C2685   1.434   .     D
C2683  C2687   1.412   .     D
C2684  C2686   1.439   .     T
C2684  C2688   1.411   .     S
C2685  C2688   1.395   .     D
C2686  C2687   1.357   .     S
Al2689 O3418   1.880   1_545 S
Al2689 O2747   1.912   .     S
Al2689 O2736   2.006   .     S
Al2689 O690    1.925   1_546 S
Al2689 O761    2.003   1_546 S
Al2689 O86     1.811   1_556 S
O2690  Al3081  1.880   1_455 S
O2690  Al3109  1.811   1_455 S
O2691  Al2857  1.912   1_455 S
O2691  C2695   1.226   .     S
O2692  C2696   1.226   .     D
O2693  C2695   1.299   .     D
O2693  Al2885  2.003   1_455 S
O2694  C2696   1.281   .     S
O2694  Al2731  2.006   .     S
C2695  C2701   1.456   .     S
C2696  C2702   1.449   .     S
C2697  C2699   1.434   .     D
C2698  C2700   1.439   .     T
C2698  C14     1.411   1_556 S
C2699  C2702   1.395   .     D
C2700  C2701   1.357   .     S
C2701  C9      1.412   1_556 D
Al2703 O2704   1.880   .     S
Al2703 O2705   1.912   .     S
Al2703 O2722   2.006   .     S
Al2703 O4      1.925   1_556 S
Al2703 O47     2.003   1_556 S
Al2703 O44     1.811   1_556 S
O2704  Al2731  1.811   .     S
O2705  C2709   1.226   .     S
O2706  C2710   1.226   .     D
O2707  C2709   1.299   .     D
O2707  Al2731  2.003   .     S
O2708  C2710   1.281   .     S
O2708  Al2941  2.006   .     S
C2709  C2715   1.456   .     S
C2710  C2716   1.449   .     S
C2711  C2713   1.434   .     D
C2712  C2714   1.439   .     T
C2712  C28     1.411   1_556 S
C2713  C2716   1.395   .     D
C2714  C2715   1.357   .     S
C2715  C23     1.412   1_556 D
Al2717 O2774   1.880   .     S
Al2717 O3447   1.912   1_545 S
Al2717 O3380   2.006   1_545 S
Al2717 O2734   1.925   .     S
Al2717 O2749   2.003   .     S
Al2717 O3418   1.811   1_545 S
O2718  Al2885  1.880   1_455 S
O2718  Al1961  1.811   1_455 S
O2719  Al3109  1.912   1_455 S
O2719  C2723   1.226   .     S
O2720  C2724   1.226   .     D
O2720  Al2731  1.925   .     S
O2721  C2723   1.299   .     D
O2721  Al2185  2.003   1_455 S
O2722  C2724   1.281   .     S
C2723  C2729   1.456   .     S
C2724  C2730   1.449   .     S
C2725  C2727   1.434   .     D
C2725  C2729   1.412   .     D
C2726  C2728   1.439   .     T
C2726  C2730   1.411   .     S
C2727  C2730   1.395   .     D
C2728  C2729   1.357   .     S
Al2731 O2732   1.880   .     S
Al2731 O2733   1.912   .     S
O2733  C2737   1.226   .     S
O2734  C2738   1.226   .     D
O2735  C2737   1.299   .     D
O2736  C2738   1.281   .     S
C2737  C2743   1.456   .     S
C2738  C2744   1.449   .     S
C2739  C2741   1.434   .     D
C2739  C2743   1.412   .     D
C2740  C2742   1.439   .     T
C2740  C2744   1.411   .     S
C2741  C2744   1.395   .     D
C2742  C2743   1.357   .     S
Al2745 O3474   1.880   1_545 S
Al2745 O2803   1.912   .     S
Al2745 O2792   2.006   .     S
Al2745 O746    1.925   1_546 S
Al2745 O817    2.003   1_546 S
Al2745 O142    1.811   1_556 S
O2746  Al2913  1.880   .     S
O2746  Al2941  1.811   .     S
O2747  C2751   1.226   .     S
O2748  C2752   1.226   .     D
O2749  C2751   1.299   .     D
O2750  C2752   1.281   .     S
O2750  Al2787  2.006   .     S
C2751  C2757   1.456   .     S
C2752  C2758   1.449   .     S
C2753  C2755   1.434   .     D
C2754  C2756   1.439   .     T
C2754  C70     1.411   1_556 S
C2755  C2758   1.395   .     D
C2756  C2757   1.357   .     S
C2757  C65     1.412   1_556 D
Al2759 O2760   1.880   .     S
Al2759 O2761   1.912   .     S
Al2759 O2778   2.006   .     S
Al2759 O60     1.925   1_556 S
Al2759 O103    2.003   1_556 S
Al2759 O100    1.811   1_556 S
O2760  Al2787  1.811   .     S
O2761  C2765   1.226   .     S
O2762  C2766   1.226   .     D
O2763  C2765   1.299   .     D
O2763  Al2787  2.003   .     S
O2764  C2766   1.281   .     S
O2764  Al2997  2.006   .     S
C2765  C2771   1.456   .     S
C2766  C2772   1.449   .     S
C2767  C2769   1.434   .     D
C2768  C2770   1.439   .     T
C2768  C84     1.411   1_556 S
C2769  C2772   1.395   .     D
C2770  C2771   1.357   .     S
C2771  C79     1.412   1_556 D
Al2773 O2830   1.880   .     S
Al2773 O3503   1.912   1_545 S
Al2773 O3436   2.006   1_545 S
Al2773 O2790   1.925   .     S
Al2773 O2805   2.003   .     S
Al2773 O3474   1.811   1_545 S
O2775  Al2941  1.912   .     S
O2775  C2779   1.226   .     S
O2776  C2780   1.226   .     D
O2776  Al2787  1.925   .     S
O2777  C2779   1.299   .     D
O2778  C2780   1.281   .     S
C2779  C2785   1.456   .     S
C2780  C2786   1.449   .     S
C2781  C2783   1.434   .     D
C2781  C2785   1.412   .     D
C2782  C2784   1.439   .     T
C2782  C2786   1.411   .     S
C2783  C2786   1.395   .     D
C2784  C2785   1.357   .     S
Al2787 O2788   1.880   .     S
Al2787 O2789   1.912   .     S
O2789  C2793   1.226   .     S
O2790  C2794   1.226   .     D
O2791  C2793   1.299   .     D
O2792  C2794   1.281   .     S
C2793  C2799   1.456   .     S
C2794  C2800   1.449   .     S
C2795  C2797   1.434   .     D
C2795  C2799   1.412   .     D
C2796  C2798   1.439   .     T
C2796  C2800   1.411   .     S
C2797  C2800   1.395   .     D
C2798  C2799   1.357   .     S
Al2801 O3530   1.880   1_545 S
Al2801 O2859   1.912   .     S
Al2801 O2848   2.006   .     S
Al2801 O802    1.925   1_546 S
Al2801 O873    2.003   1_546 S
Al2801 O198    1.811   1_556 S
O2802  Al2969  1.880   .     S
O2802  Al2997  1.811   .     S
O2803  C2807   1.226   .     S
O2804  C2808   1.226   .     D
O2805  C2807   1.299   .     D
O2806  C2808   1.281   .     S
O2806  Al2843  2.006   .     S
C2807  C2813   1.456   .     S
C2808  C2814   1.449   .     S
C2809  C2811   1.434   .     D
C2810  C2812   1.439   .     T
C2810  C126    1.411   1_556 S
C2811  C2814   1.395   .     D
C2812  C2813   1.357   .     S
C2813  C121    1.412   1_556 D
Al2815 O2816   1.880   .     S
Al2815 O2817   1.912   .     S
Al2815 O2834   2.006   .     S
Al2815 O116    1.925   1_556 S
Al2815 O159    2.003   1_556 S
Al2815 O156    1.811   1_556 S
O2816  Al2843  1.811   .     S
O2817  C2821   1.226   .     S
O2818  C2822   1.226   .     D
O2819  C2821   1.299   .     D
O2819  Al2843  2.003   .     S
O2820  C2822   1.281   .     S
O2820  Al3053  2.006   .     S
C2821  C2827   1.456   .     S
C2822  C2828   1.449   .     S
C2823  C2825   1.434   .     D
C2824  C2826   1.439   .     T
C2824  C140    1.411   1_556 S
C2825  C2828   1.395   .     D
C2826  C2827   1.357   .     S
C2827  C135    1.412   1_556 D
Al2829 O2886   1.880   .     S
Al2829 O3559   1.912   1_545 S
Al2829 O3492   2.006   1_545 S
Al2829 O2846   1.925   .     S
Al2829 O2861   2.003   .     S
Al2829 O3530   1.811   1_545 S
O2831  Al2997  1.912   .     S
O2831  C2835   1.226   .     S
O2832  C2836   1.226   .     D
O2832  Al2843  1.925   .     S
O2833  C2835   1.299   .     D
O2834  C2836   1.281   .     S
C2835  C2841   1.456   .     S
C2836  C2842   1.449   .     S
C2837  C2839   1.434   .     D
C2837  C2841   1.412   .     D
C2838  C2840   1.439   .     T
C2838  C2842   1.411   .     S
C2839  C2842   1.395   .     D
C2840  C2841   1.357   .     S
Al2843 O2844   1.880   .     S
Al2843 O2845   1.912   .     S
O2845  C2849   1.226   .     S
O2846  C2850   1.226   .     D
O2847  C2849   1.299   .     D
O2848  C2850   1.281   .     S
C2849  C2855   1.456   .     S
C2850  C2856   1.449   .     S
C2851  C2853   1.434   .     D
C2851  C2855   1.412   .     D
C2852  C2854   1.439   .     T
C2852  C2856   1.411   .     S
C2853  C2856   1.395   .     D
C2854  C2855   1.357   .     S
Al2857 O3362   1.880   1_645 S
Al2857 O2691   1.912   1_655 S
Al2857 O2904   2.006   .     S
Al2857 O858    1.925   1_546 S
Al2857 O705    2.003   1_646 S
Al2857 O30     1.811   1_656 S
O2858  Al3025  1.880   .     S
O2858  Al3053  1.811   .     S
O2859  C2863   1.226   .     S
O2860  C2864   1.226   .     D
O2861  C2863   1.299   .     D
O2862  C2864   1.281   .     S
O2862  Al2899  2.006   .     S
C2863  C2869   1.456   .     S
C2864  C2870   1.449   .     S
C2865  C2867   1.434   .     D
C2866  C2868   1.439   .     T
C2866  C182    1.411   1_556 S
C2867  C2870   1.395   .     D
C2868  C2869   1.357   .     S
C2869  C177    1.412   1_556 D
Al2871 O2872   1.880   .     S
Al2871 O2873   1.912   .     S
Al2871 O2890   2.006   .     S
Al2871 O172    1.925   1_556 S
Al2871 O215    2.003   1_556 S
Al2871 O212    1.811   1_556 S
O2872  Al2899  1.811   .     S
O2873  C2877   1.226   .     S
O2874  C2878   1.226   .     D
O2875  C2877   1.299   .     D
O2875  Al2899  2.003   .     S
O2876  C2878   1.281   .     S
O2876  Al3109  2.006   .     S
C2877  C2883   1.456   .     S
C2878  C2884   1.449   .     S
C2879  C2881   1.434   .     D
C2880  C2882   1.439   .     T
C2880  C196    1.411   1_556 S
C2881  C2884   1.395   .     D
C2882  C2883   1.357   .     S
C2883  C191    1.412   1_556 D
Al2885 O2718   1.880   1_655 S
Al2885 O3391   1.912   1_645 S
Al2885 O3548   2.006   1_545 S
Al2885 O2902   1.925   .     S
Al2885 O2693   2.003   1_655 S
Al2885 O3362   1.811   1_645 S
O2887  Al3053  1.912   .     S
O2887  C2891   1.226   .     S
O2888  C2892   1.226   .     D
O2888  Al2899  1.925   .     S
O2889  C2891   1.299   .     D
O2890  C2892   1.281   .     S
C2891  C2897   1.456   .     S
C2892  C2898   1.449   .     S
C2893  C2895   1.434   .     D
C2893  C2897   1.412   .     D
C2894  C2896   1.439   .     T
C2894  C2898   1.411   .     S
C2895  C2898   1.395   .     D
C2896  C2897   1.357   .     S
Al2899 O2900   1.880   .     S
Al2899 O2901   1.912   .     S
O2901  C2905   1.226   .     S
O2902  C2906   1.226   .     D
O2903  C2905   1.299   .     D
O2904  C2906   1.281   .     S
C2905  C2911   1.456   .     S
C2906  C2912   1.449   .     S
C2907  C2909   1.434   .     D
C2907  C2911   1.412   .     D
C2908  C2910   1.439   .     T
C2908  C2912   1.411   .     S
C2909  C2912   1.395   .     D
C2910  C2911   1.357   .     S
Al2913 O2971   1.912   .     S
Al2913 O2960   2.006   .     S
Al2913 O18     1.925   1_556 S
Al2913 O89     2.003   1_556 S
Al2913 O310    1.811   1_556 S
O2914  Al3305  1.880   1_455 S
O2914  Al3333  1.811   1_455 S
O2915  Al3081  1.912   1_455 S
O2915  C2919   1.226   .     S
O2916  C2920   1.226   .     D
O2917  C2919   1.299   .     D
O2917  Al3109  2.003   1_455 S
O2918  C2920   1.281   .     S
O2918  Al2955  2.006   .     S
C2919  C2925   1.456   .     S
C2920  C2926   1.449   .     S
C2921  C2923   1.434   .     D
C2922  C2924   1.439   .     T
C2922  C238    1.411   1_556 S
C2923  C2926   1.395   .     D
C2924  C2925   1.357   .     S
C2925  C233    1.412   1_556 D
Al2927 O2928   1.880   .     S
Al2927 O2929   1.912   .     S
Al2927 O2946   2.006   .     S
Al2927 O228    1.925   1_556 S
Al2927 O271    2.003   1_556 S
Al2927 O268    1.811   1_556 S
O2928  Al2955  1.811   .     S
O2929  C2933   1.226   .     S
O2930  C2934   1.226   .     D
O2931  C2933   1.299   .     D
O2931  Al2955  2.003   .     S
O2932  C2934   1.281   .     S
O2932  Al3165  2.006   .     S
C2933  C2939   1.456   .     S
C2934  C2940   1.449   .     S
C2935  C2937   1.434   .     D
C2936  C2938   1.439   .     T
C2936  C252    1.411   1_556 S
C2937  C2940   1.395   .     D
C2938  C2939   1.357   .     S
C2939  C247    1.412   1_556 D
Al2941 O2998   1.880   .     S
Al2941 O2958   1.925   .     S
Al2941 O2973   2.003   .     S
O2942  Al3109  1.880   1_455 S
O2942  Al2185  1.811   1_455 S
O2943  Al3333  1.912   1_455 S
O2943  C2947   1.226   .     S
O2944  C2948   1.226   .     D
O2944  Al2955  1.925   .     S
O2945  C2947   1.299   .     D
O2945  Al2409  2.003   1_455 S
O2946  C2948   1.281   .     S
C2947  C2953   1.456   .     S
C2948  C2954   1.449   .     S
C2949  C2951   1.434   .     D
C2949  C2953   1.412   .     D
C2950  C2952   1.439   .     T
C2950  C2954   1.411   .     S
C2951  C2954   1.395   .     D
C2952  C2953   1.357   .     S
Al2955 O2956   1.880   .     S
Al2955 O2957   1.912   .     S
O2957  C2961   1.226   .     S
O2958  C2962   1.226   .     D
O2959  C2961   1.299   .     D
O2960  C2962   1.281   .     S
C2961  C2967   1.456   .     S
C2962  C2968   1.449   .     S
C2963  C2965   1.434   .     D
C2963  C2967   1.412   .     D
C2964  C2966   1.439   .     T
C2964  C2968   1.411   .     S
C2965  C2968   1.395   .     D
C2966  C2967   1.357   .     S
Al2969 O3027   1.912   .     S
Al2969 O3016   2.006   .     S
Al2969 O74     1.925   1_556 S
Al2969 O145    2.003   1_556 S
Al2969 O366    1.811   1_556 S
O2970  Al3137  1.880   .     S
O2970  Al3165  1.811   .     S
O2971  C2975   1.226   .     S
O2972  C2976   1.226   .     D
O2973  C2975   1.299   .     D
O2974  C2976   1.281   .     S
O2974  Al3011  2.006   .     S
C2975  C2981   1.456   .     S
C2976  C2982   1.449   .     S
C2977  C2979   1.434   .     D
C2978  C2980   1.439   .     T
C2978  C294    1.411   1_556 S
C2979  C2982   1.395   .     D
C2980  C2981   1.357   .     S
C2981  C289    1.412   1_556 D
Al2983 O2984   1.880   .     S
Al2983 O2985   1.912   .     S
Al2983 O3002   2.006   .     S
Al2983 O284    1.925   1_556 S
Al2983 O327    2.003   1_556 S
Al2983 O324    1.811   1_556 S
O2984  Al3011  1.811   .     S
O2985  C2989   1.226   .     S
O2986  C2990   1.226   .     D
O2987  C2989   1.299   .     D
O2987  Al3011  2.003   .     S
O2988  C2990   1.281   .     S
O2988  Al3221  2.006   .     S
C2989  C2995   1.456   .     S
C2990  C2996   1.449   .     S
C2991  C2993   1.434   .     D
C2992  C2994   1.439   .     T
C2992  C308    1.411   1_556 S
C2993  C2996   1.395   .     D
C2994  C2995   1.357   .     S
C2995  C303    1.412   1_556 D
Al2997 O3054   1.880   .     S
Al2997 O3014   1.925   .     S
Al2997 O3029   2.003   .     S
O2999  Al3165  1.912   .     S
O2999  C3003   1.226   .     S
O3000  C3004   1.226   .     D
O3000  Al3011  1.925   .     S
O3001  C3003   1.299   .     D
O3002  C3004   1.281   .     S
C3003  C3009   1.456   .     S
C3004  C3010   1.449   .     S
C3005  C3007   1.434   .     D
C3005  C3009   1.412   .     D
C3006  C3008   1.439   .     T
C3006  C3010   1.411   .     S
C3007  C3010   1.395   .     D
C3008  C3009   1.357   .     S
Al3011 O3012   1.880   .     S
Al3011 O3013   1.912   .     S
O3013  C3017   1.226   .     S
O3014  C3018   1.226   .     D
O3015  C3017   1.299   .     D
O3016  C3018   1.281   .     S
C3017  C3023   1.456   .     S
C3018  C3024   1.449   .     S
C3019  C3021   1.434   .     D
C3019  C3023   1.412   .     D
C3020  C3022   1.439   .     T
C3020  C3024   1.411   .     S
C3021  C3024   1.395   .     D
C3022  C3023   1.357   .     S
Al3025 O3083   1.912   .     S
Al3025 O3072   2.006   .     S
Al3025 O130    1.925   1_556 S
Al3025 O201    2.003   1_556 S
Al3025 O422    1.811   1_556 S
O3026  Al3193  1.880   .     S
O3026  Al3221  1.811   .     S
O3027  C3031   1.226   .     S
O3028  C3032   1.226   .     D
O3029  C3031   1.299   .     D
O3030  C3032   1.281   .     S
O3030  Al3067  2.006   .     S
C3031  C3037   1.456   .     S
C3032  C3038   1.449   .     S
C3033  C3035   1.434   .     D
C3034  C3036   1.439   .     T
C3034  C350    1.411   1_556 S
C3035  C3038   1.395   .     D
C3036  C3037   1.357   .     S
C3037  C345    1.412   1_556 D
Al3039 O3040   1.880   .     S
Al3039 O3041   1.912   .     S
Al3039 O3058   2.006   .     S
Al3039 O340    1.925   1_556 S
Al3039 O383    2.003   1_556 S
Al3039 O380    1.811   1_556 S
O3040  Al3067  1.811   .     S
O3041  C3045   1.226   .     S
O3042  C3046   1.226   .     D
O3043  C3045   1.299   .     D
O3043  Al3067  2.003   .     S
O3044  C3046   1.281   .     S
O3044  Al3277  2.006   .     S
C3045  C3051   1.456   .     S
C3046  C3052   1.449   .     S
C3047  C3049   1.434   .     D
C3048  C3050   1.439   .     T
C3048  C364    1.411   1_556 S
C3049  C3052   1.395   .     D
C3050  C3051   1.357   .     S
C3051  C359    1.412   1_556 D
Al3053 O3110   1.880   .     S
Al3053 O3070   1.925   .     S
Al3053 O3085   2.003   .     S
O3055  Al3221  1.912   .     S
O3055  C3059   1.226   .     S
O3056  C3060   1.226   .     D
O3056  Al3067  1.925   .     S
O3057  C3059   1.299   .     D
O3058  C3060   1.281   .     S
C3059  C3065   1.456   .     S
C3060  C3066   1.449   .     S
C3061  C3063   1.434   .     D
C3061  C3065   1.412   .     D
C3062  C3064   1.439   .     T
C3062  C3066   1.411   .     S
C3063  C3066   1.395   .     D
C3064  C3065   1.357   .     S
Al3067 O3068   1.880   .     S
Al3067 O3069   1.912   .     S
O3069  C3073   1.226   .     S
O3070  C3074   1.226   .     D
O3071  C3073   1.299   .     D
O3072  C3074   1.281   .     S
C3073  C3079   1.456   .     S
C3074  C3080   1.449   .     S
C3075  C3077   1.434   .     D
C3075  C3079   1.412   .     D
C3076  C3078   1.439   .     T
C3076  C3080   1.411   .     S
C3077  C3080   1.395   .     D
C3078  C3079   1.357   .     S
Al3081 O2690   1.880   1_655 S
Al3081 O2915   1.912   1_655 S
Al3081 O3128   2.006   .     S
Al3081 O186    1.925   1_556 S
Al3081 O33     2.003   1_656 S
Al3081 O254    1.811   1_656 S
O3082  Al3249  1.880   .     S
O3082  Al3277  1.811   .     S
O3083  C3087   1.226   .     S
O3084  C3088   1.226   .     D
O3085  C3087   1.299   .     D
O3086  C3088   1.281   .     S
O3086  Al3123  2.006   .     S
C3087  C3093   1.456   .     S
C3088  C3094   1.449   .     S
C3089  C3091   1.434   .     D
C3090  C3092   1.439   .     T
C3090  C406    1.411   1_556 S
C3091  C3094   1.395   .     D
C3092  C3093   1.357   .     S
C3093  C401    1.412   1_556 D
Al3095 O3096   1.880   .     S
Al3095 O3097   1.912   .     S
Al3095 O3114   2.006   .     S
Al3095 O396    1.925   1_556 S
Al3095 O439    2.003   1_556 S
Al3095 O436    1.811   1_556 S
O3096  Al3123  1.811   .     S
O3097  C3101   1.226   .     S
O3098  C3102   1.226   .     D
O3099  C3101   1.299   .     D
O3099  Al3123  2.003   .     S
O3100  C3102   1.281   .     S
O3100  Al3333  2.006   .     S
C3101  C3107   1.456   .     S
C3102  C3108   1.449   .     S
C3103  C3105   1.434   .     D
C3104  C3106   1.439   .     T
C3104  C420    1.411   1_556 S
C3105  C3108   1.395   .     D
C3106  C3107   1.357   .     S
C3107  C415    1.412   1_556 D
Al3109 O2942   1.880   1_655 S
Al3109 O2719   1.912   1_655 S
Al3109 O3126   1.925   .     S
Al3109 O2917   2.003   1_655 S
Al3109 O2690   1.811   1_655 S
O3111  Al3277  1.912   .     S
O3111  C3115   1.226   .     S
O3112  C3116   1.226   .     D
O3112  Al3123  1.925   .     S
O3113  C3115   1.299   .     D
O3114  C3116   1.281   .     S
C3115  C3121   1.456   .     S
C3116  C3122   1.449   .     S
C3117  C3119   1.434   .     D
C3117  C3121   1.412   .     D
C3118  C3120   1.439   .     T
C3118  C3122   1.411   .     S
C3119  C3122   1.395   .     D
C3120  C3121   1.357   .     S
Al3123 O3124   1.880   .     S
Al3123 O3125   1.912   .     S
O3125  C3129   1.226   .     S
O3126  C3130   1.226   .     D
O3127  C3129   1.299   .     D
O3128  C3130   1.281   .     S
C3129  C3135   1.456   .     S
C3130  C3136   1.449   .     S
C3131  C3133   1.434   .     D
C3131  C3135   1.412   .     D
C3132  C3134   1.439   .     T
C3132  C3136   1.411   .     S
C3133  C3136   1.395   .     D
C3134  C3135   1.357   .     S
Al3137 O3195   1.912   .     S
Al3137 O3184   2.006   .     S
Al3137 O242    1.925   1_556 S
Al3137 O313    2.003   1_556 S
Al3137 O534    1.811   1_556 S
O3138  Al3529  1.880   1_455 S
O3138  Al3557  1.811   1_455 S
O3139  Al3305  1.912   1_455 S
O3139  C3143   1.226   .     S
O3140  C3144   1.226   .     D
O3141  C3143   1.299   .     D
O3141  Al3333  2.003   1_455 S
O3142  C3144   1.281   .     S
O3142  Al3179  2.006   .     S
C3143  C3149   1.456   .     S
C3144  C3150   1.449   .     S
C3145  C3147   1.434   .     D
C3146  C3148   1.439   .     T
C3146  C462    1.411   1_556 S
C3147  C3150   1.395   .     D
C3148  C3149   1.357   .     S
C3149  C457    1.412   1_556 D
Al3151 O3152   1.880   .     S
Al3151 O3153   1.912   .     S
Al3151 O3170   2.006   .     S
Al3151 O452    1.925   1_556 S
Al3151 O495    2.003   1_556 S
Al3151 O492    1.811   1_556 S
O3152  Al3179  1.811   .     S
O3153  C3157   1.226   .     S
O3154  C3158   1.226   .     D
O3155  C3157   1.299   .     D
O3155  Al3179  2.003   .     S
O3156  C3158   1.281   .     S
O3156  Al3389  2.006   .     S
C3157  C3163   1.456   .     S
C3158  C3164   1.449   .     S
C3159  C3161   1.434   .     D
C3160  C3162   1.439   .     T
C3160  C476    1.411   1_556 S
C3161  C3164   1.395   .     D
C3162  C3163   1.357   .     S
C3163  C471    1.412   1_556 D
Al3165 O3222   1.880   .     S
Al3165 O3182   1.925   .     S
Al3165 O3197   2.003   .     S
O3166  Al3333  1.880   1_455 S
O3166  Al2409  1.811   1_455 S
O3167  Al3557  1.912   1_455 S
O3167  C3171   1.226   .     S
O3168  C3172   1.226   .     D
O3168  Al3179  1.925   .     S
O3169  C3171   1.299   .     D
O3169  Al2633  2.003   1_455 S
O3170  C3172   1.281   .     S
C3171  C3177   1.456   .     S
C3172  C3178   1.449   .     S
C3173  C3175   1.434   .     D
C3173  C3177   1.412   .     D
C3174  C3176   1.439   .     T
C3174  C3178   1.411   .     S
C3175  C3178   1.395   .     D
C3176  C3177   1.357   .     S
Al3179 O3180   1.880   .     S
Al3179 O3181   1.912   .     S
O3181  C3185   1.226   .     S
O3182  C3186   1.226   .     D
O3183  C3185   1.299   .     D
O3184  C3186   1.281   .     S
C3185  C3191   1.456   .     S
C3186  C3192   1.449   .     S
C3187  C3189   1.434   .     D
C3187  C3191   1.412   .     D
C3188  C3190   1.439   .     T
C3188  C3192   1.411   .     S
C3189  C3192   1.395   .     D
C3190  C3191   1.357   .     S
Al3193 O3251   1.912   .     S
Al3193 O3240   2.006   .     S
Al3193 O298    1.925   1_556 S
Al3193 O369    2.003   1_556 S
Al3193 O590    1.811   1_556 S
O3194  Al3361  1.880   .     S
O3194  Al3389  1.811   .     S
O3195  C3199   1.226   .     S
O3196  C3200   1.226   .     D
O3197  C3199   1.299   .     D
O3198  C3200   1.281   .     S
O3198  Al3235  2.006   .     S
C3199  C3205   1.456   .     S
C3200  C3206   1.449   .     S
C3201  C3203   1.434   .     D
C3202  C3204   1.439   .     T
C3202  C518    1.411   1_556 S
C3203  C3206   1.395   .     D
C3204  C3205   1.357   .     S
C3205  C513    1.412   1_556 D
Al3207 O3208   1.880   .     S
Al3207 O3209   1.912   .     S
Al3207 O3226   2.006   .     S
Al3207 O508    1.925   1_556 S
Al3207 O551    2.003   1_556 S
Al3207 O548    1.811   1_556 S
O3208  Al3235  1.811   .     S
O3209  C3213   1.226   .     S
O3210  C3214   1.226   .     D
O3211  C3213   1.299   .     D
O3211  Al3235  2.003   .     S
O3212  C3214   1.281   .     S
O3212  Al3445  2.006   .     S
C3213  C3219   1.456   .     S
C3214  C3220   1.449   .     S
C3215  C3217   1.434   .     D
C3216  C3218   1.439   .     T
C3216  C532    1.411   1_556 S
C3217  C3220   1.395   .     D
C3218  C3219   1.357   .     S
C3219  C527    1.412   1_556 D
Al3221 O3278   1.880   .     S
Al3221 O3238   1.925   .     S
Al3221 O3253   2.003   .     S
O3223  Al3389  1.912   .     S
O3223  C3227   1.226   .     S
O3224  C3228   1.226   .     D
O3224  Al3235  1.925   .     S
O3225  C3227   1.299   .     D
O3226  C3228   1.281   .     S
C3227  C3233   1.456   .     S
C3228  C3234   1.449   .     S
C3229  C3231   1.434   .     D
C3229  C3233   1.412   .     D
C3230  C3232   1.439   .     T
C3230  C3234   1.411   .     S
C3231  C3234   1.395   .     D
C3232  C3233   1.357   .     S
Al3235 O3236   1.880   .     S
Al3235 O3237   1.912   .     S
O3237  C3241   1.226   .     S
O3238  C3242   1.226   .     D
O3239  C3241   1.299   .     D
O3240  C3242   1.281   .     S
C3241  C3247   1.456   .     S
C3242  C3248   1.449   .     S
C3243  C3245   1.434   .     D
C3243  C3247   1.412   .     D
C3244  C3246   1.439   .     T
C3244  C3248   1.411   .     S
C3245  C3248   1.395   .     D
C3246  C3247   1.357   .     S
Al3249 O3307   1.912   .     S
Al3249 O3296   2.006   .     S
Al3249 O354    1.925   1_556 S
Al3249 O425    2.003   1_556 S
Al3249 O646    1.811   1_556 S
O3250  Al3417  1.880   .     S
O3250  Al3445  1.811   .     S
O3251  C3255   1.226   .     S
O3252  C3256   1.226   .     D
O3253  C3255   1.299   .     D
O3254  C3256   1.281   .     S
O3254  Al3291  2.006   .     S
C3255  C3261   1.456   .     S
C3256  C3262   1.449   .     S
C3257  C3259   1.434   .     D
C3258  C3260   1.439   .     T
C3258  C574    1.411   1_556 S
C3259  C3262   1.395   .     D
C3260  C3261   1.357   .     S
C3261  C569    1.412   1_556 D
Al3263 O3264   1.880   .     S
Al3263 O3265   1.912   .     S
Al3263 O3282   2.006   .     S
Al3263 O564    1.925   1_556 S
Al3263 O607    2.003   1_556 S
Al3263 O604    1.811   1_556 S
O3264  Al3291  1.811   .     S
O3265  C3269   1.226   .     S
O3266  C3270   1.226   .     D
O3267  C3269   1.299   .     D
O3267  Al3291  2.003   .     S
O3268  C3270   1.281   .     S
O3268  Al3501  2.006   .     S
C3269  C3275   1.456   .     S
C3270  C3276   1.449   .     S
C3271  C3273   1.434   .     D
C3272  C3274   1.439   .     T
C3272  C588    1.411   1_556 S
C3273  C3276   1.395   .     D
C3274  C3275   1.357   .     S
C3275  C583    1.412   1_556 D
Al3277 O3334   1.880   .     S
Al3277 O3294   1.925   .     S
Al3277 O3309   2.003   .     S
O3279  Al3445  1.912   .     S
O3279  C3283   1.226   .     S
O3280  C3284   1.226   .     D
O3280  Al3291  1.925   .     S
O3281  C3283   1.299   .     D
O3282  C3284   1.281   .     S
C3283  C3289   1.456   .     S
C3284  C3290   1.449   .     S
C3285  C3287   1.434   .     D
C3285  C3289   1.412   .     D
C3286  C3288   1.439   .     T
C3286  C3290   1.411   .     S
C3287  C3290   1.395   .     D
C3288  C3289   1.357   .     S
Al3291 O3292   1.880   .     S
Al3291 O3293   1.912   .     S
O3293  C3297   1.226   .     S
O3294  C3298   1.226   .     D
O3295  C3297   1.299   .     D
O3296  C3298   1.281   .     S
C3297  C3303   1.456   .     S
C3298  C3304   1.449   .     S
C3299  C3301   1.434   .     D
C3299  C3303   1.412   .     D
C3300  C3302   1.439   .     T
C3300  C3304   1.411   .     S
C3301  C3304   1.395   .     D
C3302  C3303   1.357   .     S
Al3305 O2914   1.880   1_655 S
Al3305 O3139   1.912   1_655 S
Al3305 O3352   2.006   .     S
Al3305 O410    1.925   1_556 S
Al3305 O257    2.003   1_656 S
Al3305 O478    1.811   1_656 S
O3306  Al3473  1.880   .     S
O3306  Al3501  1.811   .     S
O3307  C3311   1.226   .     S
O3308  C3312   1.226   .     D
O3309  C3311   1.299   .     D
O3310  C3312   1.281   .     S
O3310  Al3347  2.006   .     S
C3311  C3317   1.456   .     S
C3312  C3318   1.449   .     S
C3313  C3315   1.434   .     D
C3314  C3316   1.439   .     T
C3314  C630    1.411   1_556 S
C3315  C3318   1.395   .     D
C3316  C3317   1.357   .     S
C3317  C625    1.412   1_556 D
Al3319 O3320   1.880   .     S
Al3319 O3321   1.912   .     S
Al3319 O3338   2.006   .     S
Al3319 O620    1.925   1_556 S
Al3319 O663    2.003   1_556 S
Al3319 O660    1.811   1_556 S
O3320  Al3347  1.811   .     S
O3321  C3325   1.226   .     S
O3322  C3326   1.226   .     D
O3323  C3325   1.299   .     D
O3323  Al3347  2.003   .     S
O3324  C3326   1.281   .     S
O3324  Al3557  2.006   .     S
C3325  C3331   1.456   .     S
C3326  C3332   1.449   .     S
C3327  C3329   1.434   .     D
C3328  C3330   1.439   .     T
C3328  C644    1.411   1_556 S
C3329  C3332   1.395   .     D
C3330  C3331   1.357   .     S
C3331  C639    1.412   1_556 D
Al3333 O3166   1.880   1_655 S
Al3333 O2943   1.912   1_655 S
Al3333 O3350   1.925   .     S
Al3333 O3141   2.003   1_655 S
Al3333 O2914   1.811   1_655 S
O3335  Al3501  1.912   .     S
O3335  C3339   1.226   .     S
O3336  C3340   1.226   .     D
O3336  Al3347  1.925   .     S
O3337  C3339   1.299   .     D
O3338  C3340   1.281   .     S
C3339  C3345   1.456   .     S
C3340  C3346   1.449   .     S
C3341  C3343   1.434   .     D
C3341  C3345   1.412   .     D
C3342  C3344   1.439   .     T
C3342  C3346   1.411   .     S
C3343  C3346   1.395   .     D
C3344  C3345   1.357   .     S
Al3347 O3348   1.880   .     S
Al3347 O3349   1.912   .     S
O3349  C3353   1.226   .     S
O3350  C3354   1.226   .     D
O3351  C3353   1.299   .     D
O3352  C3354   1.281   .     S
C3353  C3359   1.456   .     S
C3354  C3360   1.449   .     S
C3355  C3357   1.434   .     D
C3355  C3359   1.412   .     D
C3356  C3358   1.439   .     T
C3356  C3360   1.411   .     S
C3357  C3360   1.395   .     D
C3358  C3359   1.357   .     S
Al3361 O3419   1.912   .     S
Al3361 O3408   2.006   .     S
Al3361 O466    1.925   1_556 S
Al3361 O537    2.003   1_556 S
Al3361 O758    1.811   1_556 S
O3362  Al2857  1.880   1_465 S
O3362  Al2885  1.811   1_465 S
O3363  Al3529  1.912   1_455 S
O3363  C3367   1.226   .     S
O3364  C3368   1.226   .     D
O3365  C3367   1.299   .     D
O3365  Al3557  2.003   1_455 S
O3366  C3368   1.281   .     S
O3366  Al3403  2.006   .     S
C3367  C3373   1.456   .     S
C3368  C3374   1.449   .     S
C3369  C3371   1.434   .     D
C3370  C3372   1.439   .     T
C3370  C686    1.411   1_556 S
C3371  C3374   1.395   .     D
C3372  C3373   1.357   .     S
C3373  C681    1.412   1_556 D
Al3375 O3376   1.880   .     S
Al3375 O3377   1.912   .     S
Al3375 O3394   2.006   .     S
Al3375 O676    1.925   1_556 S
Al3375 O719    2.003   1_556 S
Al3375 O716    1.811   1_556 S
O3376  Al3403  1.811   .     S
O3377  C3381   1.226   .     S
O3378  C3382   1.226   .     D
O3378  Al1793  1.925   1_565 S
O3379  C3381   1.299   .     D
O3379  Al3403  2.003   .     S
O3380  C3382   1.281   .     S
O3380  Al2717  2.006   1_565 S
C3381  C3387   1.456   .     S
C3382  C3388   1.449   .     S
C3383  C3385   1.434   .     D
C3384  C3386   1.439   .     T
C3384  C700    1.411   1_556 S
C3385  C3388   1.395   .     D
C3386  C3387   1.357   .     S
C3387  C695    1.412   1_556 D
Al3389 O3446   1.880   .     S
Al3389 O3406   1.925   .     S
Al3389 O3421   2.003   .     S
O3390  Al3557  1.880   1_455 S
O3390  Al2633  1.811   1_455 S
O3391  Al2885  1.912   1_465 S
O3391  C3395   1.226   .     S
O3392  C3396   1.226   .     D
O3392  Al3403  1.925   .     S
O3393  C3395   1.299   .     D
O3393  Al1961  2.003   1_465 S
O3394  C3396   1.281   .     S
C3395  C3401   1.456   .     S
C3396  C3402   1.449   .     S
C3397  C3399   1.434   .     D
C3397  C3401   1.412   .     D
C3398  C3400   1.439   .     T
C3398  C3402   1.411   .     S
C3399  C3402   1.395   .     D
C3400  C3401   1.357   .     S
Al3403 O3404   1.880   .     S
Al3403 O3405   1.912   .     S
O3405  C3409   1.226   .     S
O3406  C3410   1.226   .     D
O3407  C3409   1.299   .     D
O3408  C3410   1.281   .     S
C3409  C3415   1.456   .     S
C3410  C3416   1.449   .     S
C3411  C3413   1.434   .     D
C3411  C3415   1.412   .     D
C3412  C3414   1.439   .     T
C3412  C3416   1.411   .     S
C3413  C3416   1.395   .     D
C3414  C3415   1.357   .     S
Al3417 O3475   1.912   .     S
Al3417 O3464   2.006   .     S
Al3417 O522    1.925   1_556 S
Al3417 O593    2.003   1_556 S
Al3417 O814    1.811   1_556 S
O3418  Al2689  1.880   1_565 S
O3418  Al2717  1.811   1_565 S
O3419  C3423   1.226   .     S
O3420  C3424   1.226   .     D
O3421  C3423   1.299   .     D
O3422  C3424   1.281   .     S
O3422  Al3459  2.006   .     S
C3423  C3429   1.456   .     S
C3424  C3430   1.449   .     S
C3425  C3427   1.434   .     D
C3426  C3428   1.439   .     T
C3426  C742    1.411   1_556 S
C3427  C3430   1.395   .     D
C3428  C3429   1.357   .     S
C3429  C737    1.412   1_556 D
Al3431 O3432   1.880   .     S
Al3431 O3433   1.912   .     S
Al3431 O3450   2.006   .     S
Al3431 O732    1.925   1_556 S
Al3431 O775    2.003   1_556 S
Al3431 O772    1.811   1_556 S
O3432  Al3459  1.811   .     S
O3433  C3437   1.226   .     S
O3434  C3438   1.226   .     D
O3434  Al1849  1.925   1_565 S
O3435  C3437   1.299   .     D
O3435  Al3459  2.003   .     S
O3436  C3438   1.281   .     S
O3436  Al2773  2.006   1_565 S
C3437  C3443   1.456   .     S
C3438  C3444   1.449   .     S
C3439  C3441   1.434   .     D
C3440  C3442   1.439   .     T
C3440  C756    1.411   1_556 S
C3441  C3444   1.395   .     D
C3442  C3443   1.357   .     S
C3443  C751    1.412   1_556 D
Al3445 O3502   1.880   .     S
Al3445 O3462   1.925   .     S
Al3445 O3477   2.003   .     S
O3447  Al2717  1.912   1_565 S
O3447  C3451   1.226   .     S
O3448  C3452   1.226   .     D
O3448  Al3459  1.925   .     S
O3449  C3451   1.299   .     D
O3449  Al1793  2.003   1_565 S
O3450  C3452   1.281   .     S
C3451  C3457   1.456   .     S
C3452  C3458   1.449   .     S
C3453  C3455   1.434   .     D
C3453  C3457   1.412   .     D
C3454  C3456   1.439   .     T
C3454  C3458   1.411   .     S
C3455  C3458   1.395   .     D
C3456  C3457   1.357   .     S
Al3459 O3460   1.880   .     S
Al3459 O3461   1.912   .     S
O3461  C3465   1.226   .     S
O3462  C3466   1.226   .     D
O3463  C3465   1.299   .     D
O3464  C3466   1.281   .     S
C3465  C3471   1.456   .     S
C3466  C3472   1.449   .     S
C3467  C3469   1.434   .     D
C3467  C3471   1.412   .     D
C3468  C3470   1.439   .     T
C3468  C3472   1.411   .     S
C3469  C3472   1.395   .     D
C3470  C3471   1.357   .     S
Al3473 O3531   1.912   .     S
Al3473 O3520   2.006   .     S
Al3473 O578    1.925   1_556 S
Al3473 O649    2.003   1_556 S
Al3473 O870    1.811   1_556 S
O3474  Al2745  1.880   1_565 S
O3474  Al2773  1.811   1_565 S
O3475  C3479   1.226   .     S
O3476  C3480   1.226   .     D
O3477  C3479   1.299   .     D
O3478  C3480   1.281   .     S
O3478  Al3515  2.006   .     S
C3479  C3485   1.456   .     S
C3480  C3486   1.449   .     S
C3481  C3483   1.434   .     D
C3482  C3484   1.439   .     T
C3482  C798    1.411   1_556 S
C3483  C3486   1.395   .     D
C3484  C3485   1.357   .     S
C3485  C793    1.412   1_556 D
Al3487 O3488   1.880   .     S
Al3487 O3489   1.912   .     S
Al3487 O3506   2.006   .     S
Al3487 O788    1.925   1_556 S
Al3487 O831    2.003   1_556 S
Al3487 O828    1.811   1_556 S
O3488  Al3515  1.811   .     S
O3489  C3493   1.226   .     S
O3490  C3494   1.226   .     D
O3490  Al1905  1.925   1_565 S
O3491  C3493   1.299   .     D
O3491  Al3515  2.003   .     S
O3492  C3494   1.281   .     S
O3492  Al2829  2.006   1_565 S
C3493  C3499   1.456   .     S
C3494  C3500   1.449   .     S
C3495  C3497   1.434   .     D
C3496  C3498   1.439   .     T
C3496  C812    1.411   1_556 S
C3497  C3500   1.395   .     D
C3498  C3499   1.357   .     S
C3499  C807    1.412   1_556 D
Al3501 O3558   1.880   .     S
Al3501 O3518   1.925   .     S
Al3501 O3533   2.003   .     S
O3503  Al2773  1.912   1_565 S
O3503  C3507   1.226   .     S
O3504  C3508   1.226   .     D
O3504  Al3515  1.925   .     S
O3505  C3507   1.299   .     D
O3505  Al1849  2.003   1_565 S
O3506  C3508   1.281   .     S
C3507  C3513   1.456   .     S
C3508  C3514   1.449   .     S
C3509  C3511   1.434   .     D
C3509  C3513   1.412   .     D
C3510  C3512   1.439   .     T
C3510  C3514   1.411   .     S
C3511  C3514   1.395   .     D
C3512  C3513   1.357   .     S
Al3515 O3516   1.880   .     S
Al3515 O3517   1.912   .     S
O3517  C3521   1.226   .     S
O3518  C3522   1.226   .     D
O3519  C3521   1.299   .     D
O3520  C3522   1.281   .     S
C3521  C3527   1.456   .     S
C3522  C3528   1.449   .     S
C3523  C3525   1.434   .     D
C3523  C3527   1.412   .     D
C3524  C3526   1.439   .     T
C3524  C3528   1.411   .     S
C3525  C3528   1.395   .     D
C3526  C3527   1.357   .     S
Al3529 O3138   1.880   1_655 S
Al3529 O3363   1.912   1_655 S
Al3529 O3576   2.006   .     S
Al3529 O634    1.925   1_556 S
Al3529 O481    2.003   1_656 S
Al3529 O702    1.811   1_656 S
O3530  Al2801  1.880   1_565 S
O3530  Al2829  1.811   1_565 S
O3531  C3535   1.226   .     S
O3532  C3536   1.226   .     D
O3533  C3535   1.299   .     D
O3534  C3536   1.281   .     S
O3534  Al3571  2.006   .     S
C3535  C3541   1.456   .     S
C3536  C3542   1.449   .     S
C3537  C3539   1.434   .     D
C3538  C3540   1.439   .     T
C3538  C854    1.411   1_556 S
C3539  C3542   1.395   .     D
C3540  C3541   1.357   .     S
C3541  C849    1.412   1_556 D
Al3543 O3544   1.880   .     S
Al3543 O3545   1.912   .     S
Al3543 O3562   2.006   .     S
Al3543 O844    1.925   1_556 S
Al3543 O887    2.003   1_556 S
Al3543 O884    1.811   1_556 S
O3544  Al3571  1.811   .     S
O3545  C3549   1.226   .     S
O3546  C3550   1.226   .     D
O3546  Al1961  1.925   1_565 S
O3547  C3549   1.299   .     D
O3547  Al3571  2.003   .     S
O3548  C3550   1.281   .     S
O3548  Al2885  2.006   1_565 S
C3549  C3555   1.456   .     S
C3550  C3556   1.449   .     S
C3551  C3553   1.434   .     D
C3552  C3554   1.439   .     T
C3552  C868    1.411   1_556 S
C3553  C3556   1.395   .     D
C3554  C3555   1.357   .     S
C3555  C863    1.412   1_556 D
Al3557 O3390   1.880   1_655 S
Al3557 O3167   1.912   1_655 S
Al3557 O3574   1.925   .     S
Al3557 O3365   2.003   1_655 S
Al3557 O3138   1.811   1_655 S
O3559  Al2829  1.912   1_565 S
O3559  C3563   1.226   .     S
O3560  C3564   1.226   .     D
O3560  Al3571  1.925   .     S
O3561  C3563   1.299   .     D
O3561  Al1905  2.003   1_565 S
O3562  C3564   1.281   .     S
C3563  C3569   1.456   .     S
C3564  C3570   1.449   .     S
C3565  C3567   1.434   .     D
C3565  C3569   1.412   .     D
C3566  C3568   1.439   .     T
C3566  C3570   1.411   .     S
C3567  C3570   1.395   .     D
C3568  C3569   1.357   .     S
Al3571 O3572   1.880   .     S
Al3571 O3573   1.912   .     S
O3573  C3577   1.226   .     S
O3574  C3578   1.226   .     D
O3575  C3577   1.299   .     D
O3576  C3578   1.281   .     S
C3577  C3583   1.456   .     S
C3578  C3584   1.449   .     S
C3579  C3581   1.434   .     D
C3579  C3583   1.412   .     D
C3580  C3582   1.439   .     T
C3580  C3584   1.411   .     S
C3581  C3584   1.395   .     D
C3582  C3583   1.357   .     S
